
---------- Begin Simulation Statistics ----------
sim_seconds                                  4.155793                       # Number of seconds simulated
sim_ticks                                4155793401000                       # Number of ticks simulated
final_tick                               56353633959001                       # Number of ticks from beginning of simulation (restored from checkpoints and never reset)
sim_freq                                 1000000000000                       # Frequency of simulated ticks
host_inst_rate                                 149546                       # Simulator instruction rate (inst/s)
host_op_rate                                   209685                       # Simulator op (including micro ops) rate (op/s)
host_tick_rate                              276076445                       # Simulator tick rate (ticks/s)
host_mem_usage                                1822028                       # Number of bytes of host memory used
host_seconds                                 15053.05                       # Real time elapsed on the host
sim_insts                                  2251128078                       # Number of instructions simulated
sim_ops                                    3156402223                       # Number of ops (including micro ops) simulated
system.voltage_domain.voltage                       1                       # Voltage in Volts
system.clk_domain.clock                          1000                       # Clock period in ticks
system.mem_ctrls.bytes_read::ruby.dir_cntrl0    123255936                       # Number of bytes read from this memory
system.mem_ctrls.bytes_read::total          123255936                       # Number of bytes read from this memory
system.mem_ctrls.bytes_written::ruby.dir_cntrl0     62168512                       # Number of bytes written to this memory
system.mem_ctrls.bytes_written::total        62168512                       # Number of bytes written to this memory
system.mem_ctrls.num_reads::ruby.dir_cntrl0      1925874                       # Number of read requests responded to by this memory
system.mem_ctrls.num_reads::total             1925874                       # Number of read requests responded to by this memory
system.mem_ctrls.num_writes::ruby.dir_cntrl0       971383                       # Number of write requests responded to by this memory
system.mem_ctrls.num_writes::total             971383                       # Number of write requests responded to by this memory
system.mem_ctrls.bw_read::ruby.dir_cntrl0     29658822                       # Total read bandwidth from this memory (bytes/s)
system.mem_ctrls.bw_read::total              29658822                       # Total read bandwidth from this memory (bytes/s)
system.mem_ctrls.bw_write::ruby.dir_cntrl0     14959481                       # Write bandwidth from this memory (bytes/s)
system.mem_ctrls.bw_write::total             14959481                       # Write bandwidth from this memory (bytes/s)
system.mem_ctrls.bw_total::ruby.dir_cntrl0     44618303                       # Total bandwidth to/from this memory (bytes/s)
system.mem_ctrls.bw_total::total             44618303                       # Total bandwidth to/from this memory (bytes/s)
system.mem_ctrls.readReqs                     1925874                       # Number of read requests accepted
system.mem_ctrls.writeReqs                     971383                       # Number of write requests accepted
system.mem_ctrls.readBursts                   1925874                       # Number of DRAM read bursts, including those serviced by the write queue
system.mem_ctrls.writeBursts                   971383                       # Number of DRAM write bursts, including those merged in the write queue
system.mem_ctrls.bytesReadDRAM              123154560                       # Total number of bytes read from DRAM
system.mem_ctrls.bytesReadWrQ                  101376                       # Total number of bytes read from write queue
system.mem_ctrls.bytesWritten                62168256                       # Total number of bytes written to DRAM
system.mem_ctrls.bytesReadSys               123255936                       # Total read bytes from the system interface side
system.mem_ctrls.bytesWrittenSys             62168512                       # Total written bytes from the system interface side
system.mem_ctrls.servicedByWrQ                   1584                       # Number of DRAM read bursts serviced by the write queue
system.mem_ctrls.mergedWrBursts                     0                       # Number of DRAM write bursts merged with an existing one
system.mem_ctrls.neitherReadNorWriteReqs            0                       # Number of requests that are neither read nor write
system.mem_ctrls.perBankRdBursts::0            120209                       # Per bank write bursts
system.mem_ctrls.perBankRdBursts::1            123885                       # Per bank write bursts
system.mem_ctrls.perBankRdBursts::2            115762                       # Per bank write bursts
system.mem_ctrls.perBankRdBursts::3            115710                       # Per bank write bursts
system.mem_ctrls.perBankRdBursts::4            123023                       # Per bank write bursts
system.mem_ctrls.perBankRdBursts::5            121846                       # Per bank write bursts
system.mem_ctrls.perBankRdBursts::6            126437                       # Per bank write bursts
system.mem_ctrls.perBankRdBursts::7            125915                       # Per bank write bursts
system.mem_ctrls.perBankRdBursts::8            127262                       # Per bank write bursts
system.mem_ctrls.perBankRdBursts::9            120878                       # Per bank write bursts
system.mem_ctrls.perBankRdBursts::10           116258                       # Per bank write bursts
system.mem_ctrls.perBankRdBursts::11           115362                       # Per bank write bursts
system.mem_ctrls.perBankRdBursts::12           117942                       # Per bank write bursts
system.mem_ctrls.perBankRdBursts::13           117025                       # Per bank write bursts
system.mem_ctrls.perBankRdBursts::14           116244                       # Per bank write bursts
system.mem_ctrls.perBankRdBursts::15           120532                       # Per bank write bursts
system.mem_ctrls.perBankWrBursts::0             60555                       # Per bank write bursts
system.mem_ctrls.perBankWrBursts::1             66170                       # Per bank write bursts
system.mem_ctrls.perBankWrBursts::2             59020                       # Per bank write bursts
system.mem_ctrls.perBankWrBursts::3             57498                       # Per bank write bursts
system.mem_ctrls.perBankWrBursts::4             60768                       # Per bank write bursts
system.mem_ctrls.perBankWrBursts::5             60603                       # Per bank write bursts
system.mem_ctrls.perBankWrBursts::6             65132                       # Per bank write bursts
system.mem_ctrls.perBankWrBursts::7             63698                       # Per bank write bursts
system.mem_ctrls.perBankWrBursts::8             62895                       # Per bank write bursts
system.mem_ctrls.perBankWrBursts::9             59889                       # Per bank write bursts
system.mem_ctrls.perBankWrBursts::10            58100                       # Per bank write bursts
system.mem_ctrls.perBankWrBursts::11            58244                       # Per bank write bursts
system.mem_ctrls.perBankWrBursts::12            61251                       # Per bank write bursts
system.mem_ctrls.perBankWrBursts::13            59376                       # Per bank write bursts
system.mem_ctrls.perBankWrBursts::14            59321                       # Per bank write bursts
system.mem_ctrls.perBankWrBursts::15            58859                       # Per bank write bursts
system.mem_ctrls.numRdRetry                         0                       # Number of times read queue was full causing retry
system.mem_ctrls.numWrRetry                         0                       # Number of times write queue was full causing retry
system.mem_ctrls.totGap                  4155793583500                       # Total gap between requests
system.mem_ctrls.readPktSize::0                     0                       # Read request sizes (log2)
system.mem_ctrls.readPktSize::1                     0                       # Read request sizes (log2)
system.mem_ctrls.readPktSize::2                     0                       # Read request sizes (log2)
system.mem_ctrls.readPktSize::3                     0                       # Read request sizes (log2)
system.mem_ctrls.readPktSize::4                     0                       # Read request sizes (log2)
system.mem_ctrls.readPktSize::5                     0                       # Read request sizes (log2)
system.mem_ctrls.readPktSize::6               1925874                       # Read request sizes (log2)
system.mem_ctrls.writePktSize::0                    0                       # Write request sizes (log2)
system.mem_ctrls.writePktSize::1                    0                       # Write request sizes (log2)
system.mem_ctrls.writePktSize::2                    0                       # Write request sizes (log2)
system.mem_ctrls.writePktSize::3                    0                       # Write request sizes (log2)
system.mem_ctrls.writePktSize::4                    0                       # Write request sizes (log2)
system.mem_ctrls.writePktSize::5                    0                       # Write request sizes (log2)
system.mem_ctrls.writePktSize::6               971383                       # Write request sizes (log2)
system.mem_ctrls.rdQLenPdf::0                 1915708                       # What read queue length does an incoming req see
system.mem_ctrls.rdQLenPdf::1                    8581                       # What read queue length does an incoming req see
system.mem_ctrls.rdQLenPdf::2                       1                       # What read queue length does an incoming req see
system.mem_ctrls.rdQLenPdf::3                       0                       # What read queue length does an incoming req see
system.mem_ctrls.rdQLenPdf::4                       0                       # What read queue length does an incoming req see
system.mem_ctrls.rdQLenPdf::5                       0                       # What read queue length does an incoming req see
system.mem_ctrls.rdQLenPdf::6                       0                       # What read queue length does an incoming req see
system.mem_ctrls.rdQLenPdf::7                       0                       # What read queue length does an incoming req see
system.mem_ctrls.rdQLenPdf::8                       0                       # What read queue length does an incoming req see
system.mem_ctrls.rdQLenPdf::9                       0                       # What read queue length does an incoming req see
system.mem_ctrls.rdQLenPdf::10                      0                       # What read queue length does an incoming req see
system.mem_ctrls.rdQLenPdf::11                      0                       # What read queue length does an incoming req see
system.mem_ctrls.rdQLenPdf::12                      0                       # What read queue length does an incoming req see
system.mem_ctrls.rdQLenPdf::13                      0                       # What read queue length does an incoming req see
system.mem_ctrls.rdQLenPdf::14                      0                       # What read queue length does an incoming req see
system.mem_ctrls.rdQLenPdf::15                      0                       # What read queue length does an incoming req see
system.mem_ctrls.rdQLenPdf::16                      0                       # What read queue length does an incoming req see
system.mem_ctrls.rdQLenPdf::17                      0                       # What read queue length does an incoming req see
system.mem_ctrls.rdQLenPdf::18                      0                       # What read queue length does an incoming req see
system.mem_ctrls.rdQLenPdf::19                      0                       # What read queue length does an incoming req see
system.mem_ctrls.rdQLenPdf::20                      0                       # What read queue length does an incoming req see
system.mem_ctrls.rdQLenPdf::21                      0                       # What read queue length does an incoming req see
system.mem_ctrls.rdQLenPdf::22                      0                       # What read queue length does an incoming req see
system.mem_ctrls.rdQLenPdf::23                      0                       # What read queue length does an incoming req see
system.mem_ctrls.rdQLenPdf::24                      0                       # What read queue length does an incoming req see
system.mem_ctrls.rdQLenPdf::25                      0                       # What read queue length does an incoming req see
system.mem_ctrls.rdQLenPdf::26                      0                       # What read queue length does an incoming req see
system.mem_ctrls.rdQLenPdf::27                      0                       # What read queue length does an incoming req see
system.mem_ctrls.rdQLenPdf::28                      0                       # What read queue length does an incoming req see
system.mem_ctrls.rdQLenPdf::29                      0                       # What read queue length does an incoming req see
system.mem_ctrls.rdQLenPdf::30                      0                       # What read queue length does an incoming req see
system.mem_ctrls.rdQLenPdf::31                      0                       # What read queue length does an incoming req see
system.mem_ctrls.wrQLenPdf::0                       0                       # What write queue length does an incoming req see
system.mem_ctrls.wrQLenPdf::1                       0                       # What write queue length does an incoming req see
system.mem_ctrls.wrQLenPdf::2                       0                       # What write queue length does an incoming req see
system.mem_ctrls.wrQLenPdf::3                       0                       # What write queue length does an incoming req see
system.mem_ctrls.wrQLenPdf::4                       0                       # What write queue length does an incoming req see
system.mem_ctrls.wrQLenPdf::5                       0                       # What write queue length does an incoming req see
system.mem_ctrls.wrQLenPdf::6                       0                       # What write queue length does an incoming req see
system.mem_ctrls.wrQLenPdf::7                       0                       # What write queue length does an incoming req see
system.mem_ctrls.wrQLenPdf::8                       0                       # What write queue length does an incoming req see
system.mem_ctrls.wrQLenPdf::9                       0                       # What write queue length does an incoming req see
system.mem_ctrls.wrQLenPdf::10                      0                       # What write queue length does an incoming req see
system.mem_ctrls.wrQLenPdf::11                      0                       # What write queue length does an incoming req see
system.mem_ctrls.wrQLenPdf::12                      0                       # What write queue length does an incoming req see
system.mem_ctrls.wrQLenPdf::13                      0                       # What write queue length does an incoming req see
system.mem_ctrls.wrQLenPdf::14                      0                       # What write queue length does an incoming req see
system.mem_ctrls.wrQLenPdf::15                   1492                       # What write queue length does an incoming req see
system.mem_ctrls.wrQLenPdf::16                   1679                       # What write queue length does an incoming req see
system.mem_ctrls.wrQLenPdf::17                  59650                       # What write queue length does an incoming req see
system.mem_ctrls.wrQLenPdf::18                  60530                       # What write queue length does an incoming req see
system.mem_ctrls.wrQLenPdf::19                  60521                       # What write queue length does an incoming req see
system.mem_ctrls.wrQLenPdf::20                  60599                       # What write queue length does an incoming req see
system.mem_ctrls.wrQLenPdf::21                  60608                       # What write queue length does an incoming req see
system.mem_ctrls.wrQLenPdf::22                  60594                       # What write queue length does an incoming req see
system.mem_ctrls.wrQLenPdf::23                  60595                       # What write queue length does an incoming req see
system.mem_ctrls.wrQLenPdf::24                  60586                       # What write queue length does an incoming req see
system.mem_ctrls.wrQLenPdf::25                  60579                       # What write queue length does an incoming req see
system.mem_ctrls.wrQLenPdf::26                  60589                       # What write queue length does an incoming req see
system.mem_ctrls.wrQLenPdf::27                  60579                       # What write queue length does an incoming req see
system.mem_ctrls.wrQLenPdf::28                  60569                       # What write queue length does an incoming req see
system.mem_ctrls.wrQLenPdf::29                  60556                       # What write queue length does an incoming req see
system.mem_ctrls.wrQLenPdf::30                  60548                       # What write queue length does an incoming req see
system.mem_ctrls.wrQLenPdf::31                  60524                       # What write queue length does an incoming req see
system.mem_ctrls.wrQLenPdf::32                  60511                       # What write queue length does an incoming req see
system.mem_ctrls.wrQLenPdf::33                     22                       # What write queue length does an incoming req see
system.mem_ctrls.wrQLenPdf::34                      9                       # What write queue length does an incoming req see
system.mem_ctrls.wrQLenPdf::35                      4                       # What write queue length does an incoming req see
system.mem_ctrls.wrQLenPdf::36                      4                       # What write queue length does an incoming req see
system.mem_ctrls.wrQLenPdf::37                      7                       # What write queue length does an incoming req see
system.mem_ctrls.wrQLenPdf::38                      4                       # What write queue length does an incoming req see
system.mem_ctrls.wrQLenPdf::39                      3                       # What write queue length does an incoming req see
system.mem_ctrls.wrQLenPdf::40                      4                       # What write queue length does an incoming req see
system.mem_ctrls.wrQLenPdf::41                      5                       # What write queue length does an incoming req see
system.mem_ctrls.wrQLenPdf::42                      3                       # What write queue length does an incoming req see
system.mem_ctrls.wrQLenPdf::43                      2                       # What write queue length does an incoming req see
system.mem_ctrls.wrQLenPdf::44                      2                       # What write queue length does an incoming req see
system.mem_ctrls.wrQLenPdf::45                      2                       # What write queue length does an incoming req see
system.mem_ctrls.wrQLenPdf::46                      3                       # What write queue length does an incoming req see
system.mem_ctrls.wrQLenPdf::47                      0                       # What write queue length does an incoming req see
system.mem_ctrls.wrQLenPdf::48                      0                       # What write queue length does an incoming req see
system.mem_ctrls.wrQLenPdf::49                      0                       # What write queue length does an incoming req see
system.mem_ctrls.wrQLenPdf::50                      0                       # What write queue length does an incoming req see
system.mem_ctrls.wrQLenPdf::51                      0                       # What write queue length does an incoming req see
system.mem_ctrls.wrQLenPdf::52                      0                       # What write queue length does an incoming req see
system.mem_ctrls.wrQLenPdf::53                      0                       # What write queue length does an incoming req see
system.mem_ctrls.wrQLenPdf::54                      0                       # What write queue length does an incoming req see
system.mem_ctrls.wrQLenPdf::55                      0                       # What write queue length does an incoming req see
system.mem_ctrls.wrQLenPdf::56                      0                       # What write queue length does an incoming req see
system.mem_ctrls.wrQLenPdf::57                      0                       # What write queue length does an incoming req see
system.mem_ctrls.wrQLenPdf::58                      0                       # What write queue length does an incoming req see
system.mem_ctrls.wrQLenPdf::59                      0                       # What write queue length does an incoming req see
system.mem_ctrls.wrQLenPdf::60                      0                       # What write queue length does an incoming req see
system.mem_ctrls.wrQLenPdf::61                      0                       # What write queue length does an incoming req see
system.mem_ctrls.wrQLenPdf::62                      0                       # What write queue length does an incoming req see
system.mem_ctrls.wrQLenPdf::63                      0                       # What write queue length does an incoming req see
system.mem_ctrls.bytesPerActivate::samples      1678378                       # Bytes accessed per row activation
system.mem_ctrls.bytesPerActivate::mean    110.417768                       # Bytes accessed per row activation
system.mem_ctrls.bytesPerActivate::gmean    86.416987                       # Bytes accessed per row activation
system.mem_ctrls.bytesPerActivate::stdev   132.217801                       # Bytes accessed per row activation
system.mem_ctrls.bytesPerActivate::0-127      1185758     70.65%     70.65% # Bytes accessed per row activation
system.mem_ctrls.bytesPerActivate::128-255       386049     23.00%     93.65% # Bytes accessed per row activation
system.mem_ctrls.bytesPerActivate::256-383        42225      2.52%     96.17% # Bytes accessed per row activation
system.mem_ctrls.bytesPerActivate::384-511        17155      1.02%     97.19% # Bytes accessed per row activation
system.mem_ctrls.bytesPerActivate::512-639        12218      0.73%     97.92% # Bytes accessed per row activation
system.mem_ctrls.bytesPerActivate::640-767        10189      0.61%     98.52% # Bytes accessed per row activation
system.mem_ctrls.bytesPerActivate::768-895         5561      0.33%     98.85% # Bytes accessed per row activation
system.mem_ctrls.bytesPerActivate::896-1023         3768      0.22%     99.08% # Bytes accessed per row activation
system.mem_ctrls.bytesPerActivate::1024-1151        15455      0.92%    100.00% # Bytes accessed per row activation
system.mem_ctrls.bytesPerActivate::total      1678378                       # Bytes accessed per row activation
system.mem_ctrls.rdPerTurnAround::samples        60503                       # Reads before turning the bus around for writes
system.mem_ctrls.rdPerTurnAround::mean      31.805051                       # Reads before turning the bus around for writes
system.mem_ctrls.rdPerTurnAround::gmean     28.104865                       # Reads before turning the bus around for writes
system.mem_ctrls.rdPerTurnAround::stdev     33.481625                       # Reads before turning the bus around for writes
system.mem_ctrls.rdPerTurnAround::0-255         60412     99.85%     99.85% # Reads before turning the bus around for writes
system.mem_ctrls.rdPerTurnAround::256-511           83      0.14%     99.99% # Reads before turning the bus around for writes
system.mem_ctrls.rdPerTurnAround::512-767            4      0.01%     99.99% # Reads before turning the bus around for writes
system.mem_ctrls.rdPerTurnAround::768-1023            2      0.00%    100.00% # Reads before turning the bus around for writes
system.mem_ctrls.rdPerTurnAround::4096-4351            1      0.00%    100.00% # Reads before turning the bus around for writes
system.mem_ctrls.rdPerTurnAround::4352-4607            1      0.00%    100.00% # Reads before turning the bus around for writes
system.mem_ctrls.rdPerTurnAround::total         60503                       # Reads before turning the bus around for writes
system.mem_ctrls.wrPerTurnAround::samples        60503                       # Writes before turning the bus around for reads
system.mem_ctrls.wrPerTurnAround::mean      16.055055                       # Writes before turning the bus around for reads
system.mem_ctrls.wrPerTurnAround::gmean     16.051899                       # Writes before turning the bus around for reads
system.mem_ctrls.wrPerTurnAround::stdev      0.331822                       # Writes before turning the bus around for reads
system.mem_ctrls.wrPerTurnAround::16            58796     97.18%     97.18% # Writes before turning the bus around for reads
system.mem_ctrls.wrPerTurnAround::17              149      0.25%     97.42% # Writes before turning the bus around for reads
system.mem_ctrls.wrPerTurnAround::18             1525      2.52%     99.95% # Writes before turning the bus around for reads
system.mem_ctrls.wrPerTurnAround::19               22      0.04%     99.98% # Writes before turning the bus around for reads
system.mem_ctrls.wrPerTurnAround::21                1      0.00%     99.98% # Writes before turning the bus around for reads
system.mem_ctrls.wrPerTurnAround::22                9      0.01%    100.00% # Writes before turning the bus around for reads
system.mem_ctrls.wrPerTurnAround::23                1      0.00%    100.00% # Writes before turning the bus around for reads
system.mem_ctrls.wrPerTurnAround::total         60503                       # Writes before turning the bus around for reads
system.mem_ctrls.totQLat                  33083761584                       # Total ticks spent queuing
system.mem_ctrls.totMemAccLat             69164199084                       # Total ticks spent from burst creation until serviced by the DRAM
system.mem_ctrls.totBusLat                 9621450000                       # Total ticks spent in databus transfers
system.mem_ctrls.avgQLat                     17192.71                       # Average queueing delay per DRAM burst
system.mem_ctrls.avgBusLat                    5000.00                       # Average bus latency per DRAM burst
system.mem_ctrls.avgMemAccLat                35942.71                       # Average memory access latency per DRAM burst
system.mem_ctrls.avgRdBW                        29.63                       # Average DRAM read bandwidth in MiByte/s
system.mem_ctrls.avgWrBW                        14.96                       # Average achieved write bandwidth in MiByte/s
system.mem_ctrls.avgRdBWSys                     29.66                       # Average system read bandwidth in MiByte/s
system.mem_ctrls.avgWrBWSys                     14.96                       # Average system write bandwidth in MiByte/s
system.mem_ctrls.peakBW                      12800.00                       # Theoretical peak bandwidth in MiByte/s
system.mem_ctrls.busUtil                         0.35                       # Data bus utilization in percentage
system.mem_ctrls.busUtilRead                     0.23                       # Data bus utilization in percentage for reads
system.mem_ctrls.busUtilWrite                    0.12                       # Data bus utilization in percentage for writes
system.mem_ctrls.avgRdQLen                       1.00                       # Average read queue length when enqueuing
system.mem_ctrls.avgWrQLen                      25.45                       # Average write queue length when enqueuing
system.mem_ctrls.readRowHits                   947204                       # Number of row buffer hits during reads
system.mem_ctrls.writeRowHits                  270087                       # Number of row buffer hits during writes
system.mem_ctrls.readRowHitRate                 49.22                       # Row buffer hit rate for reads
system.mem_ctrls.writeRowHitRate                27.80                       # Row buffer hit rate for writes
system.mem_ctrls.avgGap                    1434389.00                       # Average gap between requests
system.mem_ctrls.pageHitRate                    42.04                       # Row buffer hit rate, read and write combined
system.mem_ctrls_0.actEnergy               6454380240                       # Energy for activate commands per rank (pJ)
system.mem_ctrls_0.preEnergy               3521735250                       # Energy for precharge commands per rank (pJ)
system.mem_ctrls_0.readEnergy              7652907600                       # Energy for read commands per rank (pJ)
system.mem_ctrls_0.writeEnergy             3200640480                       # Energy for write commands per rank (pJ)
system.mem_ctrls_0.refreshEnergy         271692077280                       # Energy for refresh commands per rank (pJ)
system.mem_ctrls_0.actBackEnergy         513122525775                       # Energy for active background per rank (pJ)
system.mem_ctrls_0.preBackEnergy         2045719053750                       # Energy for precharge background per rank (pJ)
system.mem_ctrls_0.totalEnergy           2851363320375                       # Total energy per rank (pJ)
system.mem_ctrls_0.averagePower            685.471514                       # Core power per rank (mW)
system.mem_ctrls_0.memoryStateTime::IDLE 3399232386002                       # Time in different power states
system.mem_ctrls_0.memoryStateTime::REF  138771100000                       # Time in different power states
system.mem_ctrls_0.memoryStateTime::PRE_PDN            0                       # Time in different power states
system.mem_ctrls_0.memoryStateTime::ACT  617790347748                       # Time in different power states
system.mem_ctrls_0.memoryStateTime::ACT_PDN            0                       # Time in different power states
system.mem_ctrls_1.actEnergy               6271110720                       # Energy for activate commands per rank (pJ)
system.mem_ctrls_1.preEnergy               3421737000                       # Energy for precharge commands per rank (pJ)
system.mem_ctrls_1.readEnergy              7484263800                       # Energy for read commands per rank (pJ)
system.mem_ctrls_1.writeEnergy             3100518000                       # Energy for write commands per rank (pJ)
system.mem_ctrls_1.refreshEnergy         271692077280                       # Energy for refresh commands per rank (pJ)
system.mem_ctrls_1.actBackEnergy         505972469430                       # Energy for active background per rank (pJ)
system.mem_ctrls_1.preBackEnergy         2051991033000                       # Energy for precharge background per rank (pJ)
system.mem_ctrls_1.totalEnergy           2849933209230                       # Total energy per rank (pJ)
system.mem_ctrls_1.averagePower            685.127714                       # Core power per rank (mW)
system.mem_ctrls_1.memoryStateTime::IDLE 3409500172503                       # Time in different power states
system.mem_ctrls_1.memoryStateTime::REF  138771100000                       # Time in different power states
system.mem_ctrls_1.memoryStateTime::PRE_PDN            0                       # Time in different power states
system.mem_ctrls_1.memoryStateTime::ACT  607522871247                       # Time in different power states
system.mem_ctrls_1.memoryStateTime::ACT_PDN            0                       # Time in different power states
system.cpu_voltage_domain.voltage                   1                       # Voltage in Volts
system.cpu_clk_domain.clock                       500                       # Clock period in ticks
system.cpu0.apic_clk_domain.clock                8000                       # Clock period in ticks
system.cpu0.numCycles                      8309252499                       # number of cpu cycles simulated
system.cpu0.numWorkItemsStarted                     0                       # number of work items this cpu started
system.cpu0.numWorkItemsCompleted                   0                       # number of work items this cpu completed
system.cpu0.kern.inst.arm                           0                       # number of arm instructions executed
system.cpu0.kern.inst.quiesce                       0                       # number of quiesce instructions executed
system.cpu0.committedInsts                    4310864                       # Number of instructions committed
system.cpu0.committedOps                      9094481                       # Number of ops (including micro ops) committed
system.cpu0.num_int_alu_accesses              8912665                       # Number of integer alu accesses
system.cpu0.num_fp_alu_accesses                  1814                       # Number of float alu accesses
system.cpu0.num_func_calls                     251404                       # number of times a function call or return occured
system.cpu0.num_conditional_control_insts       646553                       # number of instructions that are conditional controls
system.cpu0.num_int_insts                     8912665                       # number of integer instructions
system.cpu0.num_fp_insts                         1814                       # number of float instructions
system.cpu0.num_int_register_reads           18059440                       # number of times the integer registers were read
system.cpu0.num_int_register_writes           7347069                       # number of times the integer registers were written
system.cpu0.num_fp_register_reads                3048                       # number of times the floating registers were read
system.cpu0.num_fp_register_writes               1440                       # number of times the floating registers were written
system.cpu0.num_cc_register_reads             5157760                       # number of times the CC registers were read
system.cpu0.num_cc_register_writes            2833014                       # number of times the CC registers were written
system.cpu0.num_mem_refs                      2115451                       # number of memory refs
system.cpu0.num_load_insts                    1311960                       # Number of load instructions
system.cpu0.num_store_insts                    803491                       # Number of store instructions
system.cpu0.num_idle_cycles              8285753242.606822                       # Number of idle cycles
system.cpu0.num_busy_cycles              23499256.393178                       # Number of busy cycles
system.cpu0.not_idle_fraction                0.002828                       # Percentage of non-idle cycles
system.cpu0.idle_fraction                    0.997172                       # Percentage of idle cycles
system.cpu0.Branches                           973209                       # Number of branches fetched
system.cpu0.op_class::No_OpClass               135358      1.49%      1.49% # Class of executed instruction
system.cpu0.op_class::IntAlu                  6782690     74.58%     76.07% # Class of executed instruction
system.cpu0.op_class::IntMult                   15035      0.17%     76.23% # Class of executed instruction
system.cpu0.op_class::IntDiv                    44669      0.49%     76.72% # Class of executed instruction
system.cpu0.op_class::FloatAdd                   1368      0.02%     76.74% # Class of executed instruction
system.cpu0.op_class::FloatCmp                      0      0.00%     76.74% # Class of executed instruction
system.cpu0.op_class::FloatCvt                      0      0.00%     76.74% # Class of executed instruction
system.cpu0.op_class::FloatMult                     0      0.00%     76.74% # Class of executed instruction
system.cpu0.op_class::FloatDiv                      0      0.00%     76.74% # Class of executed instruction
system.cpu0.op_class::FloatSqrt                     0      0.00%     76.74% # Class of executed instruction
system.cpu0.op_class::SimdAdd                       0      0.00%     76.74% # Class of executed instruction
system.cpu0.op_class::SimdAddAcc                    0      0.00%     76.74% # Class of executed instruction
system.cpu0.op_class::SimdAlu                       0      0.00%     76.74% # Class of executed instruction
system.cpu0.op_class::SimdCmp                       0      0.00%     76.74% # Class of executed instruction
system.cpu0.op_class::SimdCvt                       0      0.00%     76.74% # Class of executed instruction
system.cpu0.op_class::SimdMisc                      0      0.00%     76.74% # Class of executed instruction
system.cpu0.op_class::SimdMult                      0      0.00%     76.74% # Class of executed instruction
system.cpu0.op_class::SimdMultAcc                   0      0.00%     76.74% # Class of executed instruction
system.cpu0.op_class::SimdShift                     0      0.00%     76.74% # Class of executed instruction
system.cpu0.op_class::SimdShiftAcc                  0      0.00%     76.74% # Class of executed instruction
system.cpu0.op_class::SimdSqrt                      0      0.00%     76.74% # Class of executed instruction
system.cpu0.op_class::SimdFloatAdd                  0      0.00%     76.74% # Class of executed instruction
system.cpu0.op_class::SimdFloatAlu                  0      0.00%     76.74% # Class of executed instruction
system.cpu0.op_class::SimdFloatCmp                  0      0.00%     76.74% # Class of executed instruction
system.cpu0.op_class::SimdFloatCvt                  0      0.00%     76.74% # Class of executed instruction
system.cpu0.op_class::SimdFloatDiv                  0      0.00%     76.74% # Class of executed instruction
system.cpu0.op_class::SimdFloatMisc                 0      0.00%     76.74% # Class of executed instruction
system.cpu0.op_class::SimdFloatMult                 0      0.00%     76.74% # Class of executed instruction
system.cpu0.op_class::SimdFloatMultAcc              0      0.00%     76.74% # Class of executed instruction
system.cpu0.op_class::SimdFloatSqrt                 0      0.00%     76.74% # Class of executed instruction
system.cpu0.op_class::MemRead                 1311960     14.43%     91.17% # Class of executed instruction
system.cpu0.op_class::MemWrite                 803491      8.83%    100.00% # Class of executed instruction
system.cpu0.op_class::IprAccess                     0      0.00%    100.00% # Class of executed instruction
system.cpu0.op_class::InstPrefetch                  0      0.00%    100.00% # Class of executed instruction
system.cpu0.op_class::total                   9094571                       # Class of executed instruction
system.cpu1.apic_clk_domain.clock                8000                       # Clock period in ticks
system.cpu1.numCycles                      8317064800                       # number of cpu cycles simulated
system.cpu1.numWorkItemsStarted                     0                       # number of work items this cpu started
system.cpu1.numWorkItemsCompleted                   0                       # number of work items this cpu completed
system.cpu1.kern.inst.arm                           0                       # number of arm instructions executed
system.cpu1.kern.inst.quiesce                       0                       # number of quiesce instructions executed
system.cpu1.committedInsts                    2949245                       # Number of instructions committed
system.cpu1.committedOps                      6338662                       # Number of ops (including micro ops) committed
system.cpu1.num_int_alu_accesses              6201354                       # Number of integer alu accesses
system.cpu1.num_fp_alu_accesses                   154                       # Number of float alu accesses
system.cpu1.num_func_calls                     175801                       # number of times a function call or return occured
system.cpu1.num_conditional_control_insts       442224                       # number of instructions that are conditional controls
system.cpu1.num_int_insts                     6201354                       # number of integer instructions
system.cpu1.num_fp_insts                          154                       # number of float instructions
system.cpu1.num_int_register_reads           12614857                       # number of times the integer registers were read
system.cpu1.num_int_register_writes           5139993                       # number of times the integer registers were written
system.cpu1.num_fp_register_reads                 258                       # number of times the floating registers were read
system.cpu1.num_fp_register_writes                126                       # number of times the floating registers were written
system.cpu1.num_cc_register_reads             3517900                       # number of times the CC registers were read
system.cpu1.num_cc_register_writes            1868392                       # number of times the CC registers were written
system.cpu1.num_mem_refs                      1522947                       # number of memory refs
system.cpu1.num_load_insts                     947071                       # Number of load instructions
system.cpu1.num_store_insts                    575876                       # Number of store instructions
system.cpu1.num_idle_cycles              8299939150.268440                       # Number of idle cycles
system.cpu1.num_busy_cycles              17125649.731560                       # Number of busy cycles
system.cpu1.not_idle_fraction                0.002059                       # Percentage of non-idle cycles
system.cpu1.idle_fraction                    0.997941                       # Percentage of idle cycles
system.cpu1.Branches                           674822                       # Number of branches fetched
system.cpu1.op_class::No_OpClass               114602      1.81%      1.81% # Class of executed instruction
system.cpu1.op_class::IntAlu                  4644845     73.28%     75.09% # Class of executed instruction
system.cpu1.op_class::IntMult                   15957      0.25%     75.34% # Class of executed instruction
system.cpu1.op_class::IntDiv                    40215      0.63%     75.97% # Class of executed instruction
system.cpu1.op_class::FloatAdd                    120      0.00%     75.97% # Class of executed instruction
system.cpu1.op_class::FloatCmp                      0      0.00%     75.97% # Class of executed instruction
system.cpu1.op_class::FloatCvt                      0      0.00%     75.97% # Class of executed instruction
system.cpu1.op_class::FloatMult                     0      0.00%     75.97% # Class of executed instruction
system.cpu1.op_class::FloatDiv                      0      0.00%     75.97% # Class of executed instruction
system.cpu1.op_class::FloatSqrt                     0      0.00%     75.97% # Class of executed instruction
system.cpu1.op_class::SimdAdd                       0      0.00%     75.97% # Class of executed instruction
system.cpu1.op_class::SimdAddAcc                    0      0.00%     75.97% # Class of executed instruction
system.cpu1.op_class::SimdAlu                       0      0.00%     75.97% # Class of executed instruction
system.cpu1.op_class::SimdCmp                       0      0.00%     75.97% # Class of executed instruction
system.cpu1.op_class::SimdCvt                       0      0.00%     75.97% # Class of executed instruction
system.cpu1.op_class::SimdMisc                      0      0.00%     75.97% # Class of executed instruction
system.cpu1.op_class::SimdMult                      0      0.00%     75.97% # Class of executed instruction
system.cpu1.op_class::SimdMultAcc                   0      0.00%     75.97% # Class of executed instruction
system.cpu1.op_class::SimdShift                     0      0.00%     75.97% # Class of executed instruction
system.cpu1.op_class::SimdShiftAcc                  0      0.00%     75.97% # Class of executed instruction
system.cpu1.op_class::SimdSqrt                      0      0.00%     75.97% # Class of executed instruction
system.cpu1.op_class::SimdFloatAdd                  0      0.00%     75.97% # Class of executed instruction
system.cpu1.op_class::SimdFloatAlu                  0      0.00%     75.97% # Class of executed instruction
system.cpu1.op_class::SimdFloatCmp                  0      0.00%     75.97% # Class of executed instruction
system.cpu1.op_class::SimdFloatCvt                  0      0.00%     75.97% # Class of executed instruction
system.cpu1.op_class::SimdFloatDiv                  0      0.00%     75.97% # Class of executed instruction
system.cpu1.op_class::SimdFloatMisc                 0      0.00%     75.97% # Class of executed instruction
system.cpu1.op_class::SimdFloatMult                 0      0.00%     75.97% # Class of executed instruction
system.cpu1.op_class::SimdFloatMultAcc              0      0.00%     75.97% # Class of executed instruction
system.cpu1.op_class::SimdFloatSqrt                 0      0.00%     75.97% # Class of executed instruction
system.cpu1.op_class::MemRead                  947071     14.94%     90.91% # Class of executed instruction
system.cpu1.op_class::MemWrite                 575876      9.09%    100.00% # Class of executed instruction
system.cpu1.op_class::IprAccess                     0      0.00%    100.00% # Class of executed instruction
system.cpu1.op_class::InstPrefetch                  0      0.00%    100.00% # Class of executed instruction
system.cpu1.op_class::total                   6338686                       # Class of executed instruction
system.cpu2.apic_clk_domain.clock                8000                       # Clock period in ticks
system.cpu2.numCycles                      8313847720                       # number of cpu cycles simulated
system.cpu2.numWorkItemsStarted                     0                       # number of work items this cpu started
system.cpu2.numWorkItemsCompleted                   0                       # number of work items this cpu completed
system.cpu2.kern.inst.arm                           0                       # number of arm instructions executed
system.cpu2.kern.inst.quiesce                       0                       # number of quiesce instructions executed
system.cpu2.committedInsts                 2239509329                       # Number of instructions committed
system.cpu2.committedOps                   3131996100                       # Number of ops (including micro ops) committed
system.cpu2.num_int_alu_accesses           1365040150                       # Number of integer alu accesses
system.cpu2.num_fp_alu_accesses            2127680264                       # Number of float alu accesses
system.cpu2.num_func_calls                    4837709                       # number of times a function call or return occured
system.cpu2.num_conditional_control_insts    125346903                       # number of instructions that are conditional controls
system.cpu2.num_int_insts                  1365040150                       # number of integer instructions
system.cpu2.num_fp_insts                   2127680264                       # number of float instructions
system.cpu2.num_int_register_reads         2745590952                       # number of times the integer registers were read
system.cpu2.num_int_register_writes         828511673                       # number of times the integer registers were written
system.cpu2.num_fp_register_reads          4601234004                       # number of times the floating registers were read
system.cpu2.num_fp_register_writes         2077617833                       # number of times the floating registers were written
system.cpu2.num_cc_register_reads           735937604                       # number of times the CC registers were read
system.cpu2.num_cc_register_writes          430163676                       # number of times the CC registers were written
system.cpu2.num_mem_refs                    408344010                       # number of memory refs
system.cpu2.num_load_insts                  353618942                       # Number of load instructions
system.cpu2.num_store_insts                  54725068                       # Number of store instructions
system.cpu2.num_idle_cycles              5554552.536589                       # Number of idle cycles
system.cpu2.num_busy_cycles              8308293167.463411                       # Number of busy cycles
system.cpu2.not_idle_fraction                0.999332                       # Percentage of non-idle cycles
system.cpu2.idle_fraction                    0.000668                       # Percentage of idle cycles
system.cpu2.Branches                        163313834                       # Number of branches fetched
system.cpu2.op_class::No_OpClass              2282766      0.07%      0.07% # Class of executed instruction
system.cpu2.op_class::IntAlu               1676703459     53.53%     53.61% # Class of executed instruction
system.cpu2.op_class::IntMult                   79522      0.00%     53.61% # Class of executed instruction
system.cpu2.op_class::IntDiv                    99353      0.00%     53.61% # Class of executed instruction
system.cpu2.op_class::FloatAdd             1044495651     33.35%     86.96% # Class of executed instruction
system.cpu2.op_class::FloatCmp                      0      0.00%     86.96% # Class of executed instruction
system.cpu2.op_class::FloatCvt                      0      0.00%     86.96% # Class of executed instruction
system.cpu2.op_class::FloatMult                     0      0.00%     86.96% # Class of executed instruction
system.cpu2.op_class::FloatDiv                      0      0.00%     86.96% # Class of executed instruction
system.cpu2.op_class::FloatSqrt                     0      0.00%     86.96% # Class of executed instruction
system.cpu2.op_class::SimdAdd                       0      0.00%     86.96% # Class of executed instruction
system.cpu2.op_class::SimdAddAcc                    0      0.00%     86.96% # Class of executed instruction
system.cpu2.op_class::SimdAlu                       0      0.00%     86.96% # Class of executed instruction
system.cpu2.op_class::SimdCmp                       0      0.00%     86.96% # Class of executed instruction
system.cpu2.op_class::SimdCvt                       0      0.00%     86.96% # Class of executed instruction
system.cpu2.op_class::SimdMisc                      0      0.00%     86.96% # Class of executed instruction
system.cpu2.op_class::SimdMult                      0      0.00%     86.96% # Class of executed instruction
system.cpu2.op_class::SimdMultAcc                   0      0.00%     86.96% # Class of executed instruction
system.cpu2.op_class::SimdShift                     0      0.00%     86.96% # Class of executed instruction
system.cpu2.op_class::SimdShiftAcc                  0      0.00%     86.96% # Class of executed instruction
system.cpu2.op_class::SimdSqrt                      0      0.00%     86.96% # Class of executed instruction
system.cpu2.op_class::SimdFloatAdd                  0      0.00%     86.96% # Class of executed instruction
system.cpu2.op_class::SimdFloatAlu                  0      0.00%     86.96% # Class of executed instruction
system.cpu2.op_class::SimdFloatCmp                  0      0.00%     86.96% # Class of executed instruction
system.cpu2.op_class::SimdFloatCvt                  0      0.00%     86.96% # Class of executed instruction
system.cpu2.op_class::SimdFloatDiv                  0      0.00%     86.96% # Class of executed instruction
system.cpu2.op_class::SimdFloatMisc                 0      0.00%     86.96% # Class of executed instruction
system.cpu2.op_class::SimdFloatMult                 0      0.00%     86.96% # Class of executed instruction
system.cpu2.op_class::SimdFloatMultAcc              0      0.00%     86.96% # Class of executed instruction
system.cpu2.op_class::SimdFloatSqrt                 0      0.00%     86.96% # Class of executed instruction
system.cpu2.op_class::MemRead               353618942     11.29%     98.25% # Class of executed instruction
system.cpu2.op_class::MemWrite               54725068      1.75%    100.00% # Class of executed instruction
system.cpu2.op_class::IprAccess                     0      0.00%    100.00% # Class of executed instruction
system.cpu2.op_class::InstPrefetch                  0      0.00%    100.00% # Class of executed instruction
system.cpu2.op_class::total                3132004761                       # Class of executed instruction
system.cpu3.apic_clk_domain.clock                8000                       # Clock period in ticks
system.cpu3.numCycles                      8307540756                       # number of cpu cycles simulated
system.cpu3.numWorkItemsStarted                     0                       # number of work items this cpu started
system.cpu3.numWorkItemsCompleted                   0                       # number of work items this cpu completed
system.cpu3.kern.inst.arm                           0                       # number of arm instructions executed
system.cpu3.kern.inst.quiesce                       0                       # number of quiesce instructions executed
system.cpu3.committedInsts                    2942366                       # Number of instructions committed
system.cpu3.committedOps                      6356297                       # Number of ops (including micro ops) committed
system.cpu3.num_int_alu_accesses              6215354                       # Number of integer alu accesses
system.cpu3.num_fp_alu_accesses                     0                       # Number of float alu accesses
system.cpu3.num_func_calls                     175206                       # number of times a function call or return occured
system.cpu3.num_conditional_control_insts       446904                       # number of instructions that are conditional controls
system.cpu3.num_int_insts                     6215354                       # number of integer instructions
system.cpu3.num_fp_insts                            0                       # number of float instructions
system.cpu3.num_int_register_reads           12635062                       # number of times the integer registers were read
system.cpu3.num_int_register_writes           5162157                       # number of times the integer registers were written
system.cpu3.num_fp_register_reads                   0                       # number of times the floating registers were read
system.cpu3.num_fp_register_writes                  0                       # number of times the floating registers were written
system.cpu3.num_cc_register_reads             3582154                       # number of times the CC registers were read
system.cpu3.num_cc_register_writes            1877492                       # number of times the CC registers were written
system.cpu3.num_mem_refs                      1511558                       # number of memory refs
system.cpu3.num_load_insts                     939648                       # Number of load instructions
system.cpu3.num_store_insts                    571910                       # Number of store instructions
system.cpu3.num_idle_cycles              8291275546.692716                       # Number of idle cycles
system.cpu3.num_busy_cycles              16265209.307285                       # Number of busy cycles
system.cpu3.not_idle_fraction                0.001958                       # Percentage of non-idle cycles
system.cpu3.idle_fraction                    0.998042                       # Percentage of idle cycles
system.cpu3.Branches                           679363                       # Number of branches fetched
system.cpu3.op_class::No_OpClass               120770      1.90%      1.90% # Class of executed instruction
system.cpu3.op_class::IntAlu                  4667512     73.43%     75.33% # Class of executed instruction
system.cpu3.op_class::IntMult                   12857      0.20%     75.53% # Class of executed instruction
system.cpu3.op_class::IntDiv                    43603      0.69%     76.22% # Class of executed instruction
system.cpu3.op_class::FloatAdd                      0      0.00%     76.22% # Class of executed instruction
system.cpu3.op_class::FloatCmp                      0      0.00%     76.22% # Class of executed instruction
system.cpu3.op_class::FloatCvt                      0      0.00%     76.22% # Class of executed instruction
system.cpu3.op_class::FloatMult                     0      0.00%     76.22% # Class of executed instruction
system.cpu3.op_class::FloatDiv                      0      0.00%     76.22% # Class of executed instruction
system.cpu3.op_class::FloatSqrt                     0      0.00%     76.22% # Class of executed instruction
system.cpu3.op_class::SimdAdd                       0      0.00%     76.22% # Class of executed instruction
system.cpu3.op_class::SimdAddAcc                    0      0.00%     76.22% # Class of executed instruction
system.cpu3.op_class::SimdAlu                       0      0.00%     76.22% # Class of executed instruction
system.cpu3.op_class::SimdCmp                       0      0.00%     76.22% # Class of executed instruction
system.cpu3.op_class::SimdCvt                       0      0.00%     76.22% # Class of executed instruction
system.cpu3.op_class::SimdMisc                      0      0.00%     76.22% # Class of executed instruction
system.cpu3.op_class::SimdMult                      0      0.00%     76.22% # Class of executed instruction
system.cpu3.op_class::SimdMultAcc                   0      0.00%     76.22% # Class of executed instruction
system.cpu3.op_class::SimdShift                     0      0.00%     76.22% # Class of executed instruction
system.cpu3.op_class::SimdShiftAcc                  0      0.00%     76.22% # Class of executed instruction
system.cpu3.op_class::SimdSqrt                      0      0.00%     76.22% # Class of executed instruction
system.cpu3.op_class::SimdFloatAdd                  0      0.00%     76.22% # Class of executed instruction
system.cpu3.op_class::SimdFloatAlu                  0      0.00%     76.22% # Class of executed instruction
system.cpu3.op_class::SimdFloatCmp                  0      0.00%     76.22% # Class of executed instruction
system.cpu3.op_class::SimdFloatCvt                  0      0.00%     76.22% # Class of executed instruction
system.cpu3.op_class::SimdFloatDiv                  0      0.00%     76.22% # Class of executed instruction
system.cpu3.op_class::SimdFloatMisc                 0      0.00%     76.22% # Class of executed instruction
system.cpu3.op_class::SimdFloatMult                 0      0.00%     76.22% # Class of executed instruction
system.cpu3.op_class::SimdFloatMultAcc              0      0.00%     76.22% # Class of executed instruction
system.cpu3.op_class::SimdFloatSqrt                 0      0.00%     76.22% # Class of executed instruction
system.cpu3.op_class::MemRead                  939648     14.78%     91.00% # Class of executed instruction
system.cpu3.op_class::MemWrite                 571910      9.00%    100.00% # Class of executed instruction
system.cpu3.op_class::IprAccess                     0      0.00%    100.00% # Class of executed instruction
system.cpu3.op_class::InstPrefetch                  0      0.00%    100.00% # Class of executed instruction
system.cpu3.op_class::total                   6356300                       # Class of executed instruction
system.iobus.trans_dist::ReadReq                  200                       # Transaction distribution
system.iobus.trans_dist::ReadResp                 200                       # Transaction distribution
system.iobus.trans_dist::WriteReq                4298                       # Transaction distribution
system.iobus.trans_dist::WriteResp               4298                       # Transaction distribution
system.iobus.trans_dist::MessageReq                19                       # Transaction distribution
system.iobus.trans_dist::MessageResp               19                       # Transaction distribution
system.iobus.pkt_count_system.pc.south_bridge.io_apic.int_master::system.ruby.l0_cntrl0.sequencer.pio-slave-port            6                       # Packet count per connected master and slave (bytes)
system.iobus.pkt_count_system.pc.south_bridge.io_apic.int_master::system.ruby.l0_cntrl1.sequencer.pio-slave-port            4                       # Packet count per connected master and slave (bytes)
system.iobus.pkt_count_system.pc.south_bridge.io_apic.int_master::system.ruby.l0_cntrl2.sequencer.pio-slave-port            4                       # Packet count per connected master and slave (bytes)
system.iobus.pkt_count_system.pc.south_bridge.io_apic.int_master::system.ruby.l0_cntrl3.sequencer.pio-slave-port            6                       # Packet count per connected master and slave (bytes)
system.iobus.pkt_count_system.pc.south_bridge.io_apic.int_master::total           20                       # Packet count per connected master and slave (bytes)
system.iobus.pkt_count_system.ruby.l0_cntrl0.sequencer.mem-master-port::system.pc.south_bridge.ide.pio           46                       # Packet count per connected master and slave (bytes)
system.iobus.pkt_count_system.ruby.l0_cntrl0.sequencer.mem-master-port::system.pc.south_bridge.io_apic.pio           16                       # Packet count per connected master and slave (bytes)
system.iobus.pkt_count_system.ruby.l0_cntrl0.sequencer.mem-master-port::system.ruby.l0_cntrl0.sequencer.pio-slave-port         2104                       # Packet count per connected master and slave (bytes)
system.iobus.pkt_count_system.ruby.l0_cntrl0.sequencer.mem-master-port::system.ruby.l0_cntrl1.sequencer.pio-slave-port            2                       # Packet count per connected master and slave (bytes)
system.iobus.pkt_count_system.ruby.l0_cntrl0.sequencer.mem-master-port::system.ruby.l0_cntrl2.sequencer.pio-slave-port            2                       # Packet count per connected master and slave (bytes)
system.iobus.pkt_count_system.ruby.l0_cntrl0.sequencer.mem-master-port::system.ruby.l0_cntrl3.sequencer.pio-slave-port            2                       # Packet count per connected master and slave (bytes)
system.iobus.pkt_count_system.ruby.l0_cntrl0.sequencer.mem-master-port::total         2172                       # Packet count per connected master and slave (bytes)
system.iobus.pkt_count_system.ruby.l0_cntrl1.sequencer.mem-master-port::system.pc.south_bridge.ide.pio           12                       # Packet count per connected master and slave (bytes)
system.iobus.pkt_count_system.ruby.l0_cntrl1.sequencer.mem-master-port::system.pc.south_bridge.io_apic.pio            8                       # Packet count per connected master and slave (bytes)
system.iobus.pkt_count_system.ruby.l0_cntrl1.sequencer.mem-master-port::system.ruby.l0_cntrl1.sequencer.pio-slave-port         2094                       # Packet count per connected master and slave (bytes)
system.iobus.pkt_count_system.ruby.l0_cntrl1.sequencer.mem-master-port::system.ruby.l0_cntrl2.sequencer.pio-slave-port            2                       # Packet count per connected master and slave (bytes)
system.iobus.pkt_count_system.ruby.l0_cntrl1.sequencer.mem-master-port::total         2116                       # Packet count per connected master and slave (bytes)
system.iobus.pkt_count_system.ruby.l0_cntrl2.sequencer.mem-master-port::system.pc.south_bridge.ide.pio           34                       # Packet count per connected master and slave (bytes)
system.iobus.pkt_count_system.ruby.l0_cntrl2.sequencer.mem-master-port::system.pc.south_bridge.io_apic.pio           12                       # Packet count per connected master and slave (bytes)
system.iobus.pkt_count_system.ruby.l0_cntrl2.sequencer.mem-master-port::system.pc.com_1.pio          196                       # Packet count per connected master and slave (bytes)
system.iobus.pkt_count_system.ruby.l0_cntrl2.sequencer.mem-master-port::system.ruby.l0_cntrl1.sequencer.pio-slave-port            2                       # Packet count per connected master and slave (bytes)
system.iobus.pkt_count_system.ruby.l0_cntrl2.sequencer.mem-master-port::system.ruby.l0_cntrl2.sequencer.pio-slave-port         2110                       # Packet count per connected master and slave (bytes)
system.iobus.pkt_count_system.ruby.l0_cntrl2.sequencer.mem-master-port::system.ruby.l0_cntrl3.sequencer.pio-slave-port            6                       # Packet count per connected master and slave (bytes)
system.iobus.pkt_count_system.ruby.l0_cntrl2.sequencer.mem-master-port::total         2360                       # Packet count per connected master and slave (bytes)
system.iobus.pkt_count_system.ruby.l0_cntrl3.sequencer.mem-master-port::system.pc.south_bridge.io_apic.pio           22                       # Packet count per connected master and slave (bytes)
system.iobus.pkt_count_system.ruby.l0_cntrl3.sequencer.mem-master-port::system.pc.com_1.pio          244                       # Packet count per connected master and slave (bytes)
system.iobus.pkt_count_system.ruby.l0_cntrl3.sequencer.mem-master-port::system.ruby.l0_cntrl0.sequencer.pio-slave-port            2                       # Packet count per connected master and slave (bytes)
system.iobus.pkt_count_system.ruby.l0_cntrl3.sequencer.mem-master-port::system.ruby.l0_cntrl3.sequencer.pio-slave-port         2098                       # Packet count per connected master and slave (bytes)
system.iobus.pkt_count_system.ruby.l0_cntrl3.sequencer.mem-master-port::total         2366                       # Packet count per connected master and slave (bytes)
system.iobus.pkt_count::total                    9034                       # Packet count per connected master and slave (bytes)
system.iobus.pkt_size_system.pc.south_bridge.io_apic.int_master::system.ruby.l0_cntrl0.sequencer.pio-slave-port           12                       # Cumulative packet size per connected master and slave (bytes)
system.iobus.pkt_size_system.pc.south_bridge.io_apic.int_master::system.ruby.l0_cntrl1.sequencer.pio-slave-port            8                       # Cumulative packet size per connected master and slave (bytes)
system.iobus.pkt_size_system.pc.south_bridge.io_apic.int_master::system.ruby.l0_cntrl2.sequencer.pio-slave-port            8                       # Cumulative packet size per connected master and slave (bytes)
system.iobus.pkt_size_system.pc.south_bridge.io_apic.int_master::system.ruby.l0_cntrl3.sequencer.pio-slave-port           12                       # Cumulative packet size per connected master and slave (bytes)
system.iobus.pkt_size_system.pc.south_bridge.io_apic.int_master::total           40                       # Cumulative packet size per connected master and slave (bytes)
system.iobus.pkt_size_system.ruby.l0_cntrl0.sequencer.mem-master-port::system.pc.south_bridge.ide.pio           26                       # Cumulative packet size per connected master and slave (bytes)
system.iobus.pkt_size_system.ruby.l0_cntrl0.sequencer.mem-master-port::system.pc.south_bridge.io_apic.pio           32                       # Cumulative packet size per connected master and slave (bytes)
system.iobus.pkt_size_system.ruby.l0_cntrl0.sequencer.mem-master-port::system.ruby.l0_cntrl0.sequencer.pio-slave-port         4208                       # Cumulative packet size per connected master and slave (bytes)
system.iobus.pkt_size_system.ruby.l0_cntrl0.sequencer.mem-master-port::system.ruby.l0_cntrl1.sequencer.pio-slave-port            4                       # Cumulative packet size per connected master and slave (bytes)
system.iobus.pkt_size_system.ruby.l0_cntrl0.sequencer.mem-master-port::system.ruby.l0_cntrl2.sequencer.pio-slave-port            4                       # Cumulative packet size per connected master and slave (bytes)
system.iobus.pkt_size_system.ruby.l0_cntrl0.sequencer.mem-master-port::system.ruby.l0_cntrl3.sequencer.pio-slave-port            4                       # Cumulative packet size per connected master and slave (bytes)
system.iobus.pkt_size_system.ruby.l0_cntrl0.sequencer.mem-master-port::total         4278                       # Cumulative packet size per connected master and slave (bytes)
system.iobus.pkt_size_system.ruby.l0_cntrl1.sequencer.mem-master-port::system.pc.south_bridge.ide.pio            6                       # Cumulative packet size per connected master and slave (bytes)
system.iobus.pkt_size_system.ruby.l0_cntrl1.sequencer.mem-master-port::system.pc.south_bridge.io_apic.pio           16                       # Cumulative packet size per connected master and slave (bytes)
system.iobus.pkt_size_system.ruby.l0_cntrl1.sequencer.mem-master-port::system.ruby.l0_cntrl1.sequencer.pio-slave-port         4188                       # Cumulative packet size per connected master and slave (bytes)
system.iobus.pkt_size_system.ruby.l0_cntrl1.sequencer.mem-master-port::system.ruby.l0_cntrl2.sequencer.pio-slave-port            4                       # Cumulative packet size per connected master and slave (bytes)
system.iobus.pkt_size_system.ruby.l0_cntrl1.sequencer.mem-master-port::total         4214                       # Cumulative packet size per connected master and slave (bytes)
system.iobus.pkt_size_system.ruby.l0_cntrl2.sequencer.mem-master-port::system.pc.south_bridge.ide.pio           20                       # Cumulative packet size per connected master and slave (bytes)
system.iobus.pkt_size_system.ruby.l0_cntrl2.sequencer.mem-master-port::system.pc.south_bridge.io_apic.pio           24                       # Cumulative packet size per connected master and slave (bytes)
system.iobus.pkt_size_system.ruby.l0_cntrl2.sequencer.mem-master-port::system.pc.com_1.pio           98                       # Cumulative packet size per connected master and slave (bytes)
system.iobus.pkt_size_system.ruby.l0_cntrl2.sequencer.mem-master-port::system.ruby.l0_cntrl1.sequencer.pio-slave-port            4                       # Cumulative packet size per connected master and slave (bytes)
system.iobus.pkt_size_system.ruby.l0_cntrl2.sequencer.mem-master-port::system.ruby.l0_cntrl2.sequencer.pio-slave-port         4220                       # Cumulative packet size per connected master and slave (bytes)
system.iobus.pkt_size_system.ruby.l0_cntrl2.sequencer.mem-master-port::system.ruby.l0_cntrl3.sequencer.pio-slave-port           12                       # Cumulative packet size per connected master and slave (bytes)
system.iobus.pkt_size_system.ruby.l0_cntrl2.sequencer.mem-master-port::total         4378                       # Cumulative packet size per connected master and slave (bytes)
system.iobus.pkt_size_system.ruby.l0_cntrl3.sequencer.mem-master-port::system.pc.south_bridge.io_apic.pio           44                       # Cumulative packet size per connected master and slave (bytes)
system.iobus.pkt_size_system.ruby.l0_cntrl3.sequencer.mem-master-port::system.pc.com_1.pio          122                       # Cumulative packet size per connected master and slave (bytes)
system.iobus.pkt_size_system.ruby.l0_cntrl3.sequencer.mem-master-port::system.ruby.l0_cntrl0.sequencer.pio-slave-port            4                       # Cumulative packet size per connected master and slave (bytes)
system.iobus.pkt_size_system.ruby.l0_cntrl3.sequencer.mem-master-port::system.ruby.l0_cntrl3.sequencer.pio-slave-port         4196                       # Cumulative packet size per connected master and slave (bytes)
system.iobus.pkt_size_system.ruby.l0_cntrl3.sequencer.mem-master-port::total         4366                       # Cumulative packet size per connected master and slave (bytes)
system.iobus.pkt_size::total                    17276                       # Cumulative packet size per connected master and slave (bytes)
system.iobus.reqLayer2.occupancy                80500                       # Layer occupancy (ticks)
system.iobus.reqLayer2.utilization                0.0                       # Layer utilization (%)
system.iobus.reqLayer8.occupancy                51495                       # Layer occupancy (ticks)
system.iobus.reqLayer8.utilization                0.0                       # Layer utilization (%)
system.iobus.reqLayer12.occupancy              282500                       # Layer occupancy (ticks)
system.iobus.reqLayer12.utilization               0.0                       # Layer utilization (%)
system.iobus.reqLayer17.occupancy             2523497                       # Layer occupancy (ticks)
system.iobus.reqLayer17.utilization               0.0                       # Layer utilization (%)
system.iobus.reqLayer18.occupancy             2523499                       # Layer occupancy (ticks)
system.iobus.reqLayer18.utilization               0.0                       # Layer utilization (%)
system.iobus.reqLayer19.occupancy             2888960                       # Layer occupancy (ticks)
system.iobus.reqLayer19.utilization               0.0                       # Layer utilization (%)
system.iobus.reqLayer20.occupancy             2531000                       # Layer occupancy (ticks)
system.iobus.reqLayer20.utilization               0.0                       # Layer utilization (%)
system.iobus.respLayer0.occupancy               14498                       # Layer occupancy (ticks)
system.iobus.respLayer0.utilization               0.0                       # Layer utilization (%)
system.iobus.respLayer2.occupancy             1627000                       # Layer occupancy (ticks)
system.iobus.respLayer2.utilization               0.0                       # Layer utilization (%)
system.iobus.respLayer4.occupancy             1588500                       # Layer occupancy (ticks)
system.iobus.respLayer4.utilization               0.0                       # Layer utilization (%)
system.iobus.respLayer6.occupancy             1791500                       # Layer occupancy (ticks)
system.iobus.respLayer6.utilization               0.0                       # Layer utilization (%)
system.iobus.respLayer8.occupancy             1803000                       # Layer occupancy (ticks)
system.iobus.respLayer8.utilization               0.0                       # Layer utilization (%)
system.pc.south_bridge.ide.disks.dma_read_full_pages            1                       # Number of full page size DMA reads (not PRD).
system.pc.south_bridge.ide.disks.dma_read_bytes         4096                       # Number of bytes transfered via DMA reads (not PRD).
system.pc.south_bridge.ide.disks.dma_read_txs            1                       # Number of DMA read transactions (not PRD).
system.pc.south_bridge.ide.disks.dma_write_full_pages           24                       # Number of full page size DMA writes.
system.pc.south_bridge.ide.disks.dma_write_bytes        98304                       # Number of bytes transfered via DMA writes.
system.pc.south_bridge.ide.disks.dma_write_txs           24                       # Number of DMA write transactions.
system.ruby.clk_domain.clock                      500                       # Clock period in ticks
system.ruby.delayHist::bucket_size                  4                       # delay histogram for all message
system.ruby.delayHist::max_bucket                  39                       # delay histogram for all message
system.ruby.delayHist::samples              136033906                       # delay histogram for all message
system.ruby.delayHist::mean                  0.111869                       # delay histogram for all message
system.ruby.delayHist::stdev                 0.939028                       # delay histogram for all message
system.ruby.delayHist                    |   134135222     98.60%     98.60% |        4004      0.00%     98.61% |     1893928      1.39%    100.00% |         225      0.00%    100.00% |         501      0.00%    100.00% |          10      0.00%    100.00% |          16      0.00%    100.00% |           0      0.00%    100.00% |           0      0.00%    100.00% |           0      0.00%    100.00% # delay histogram for all message
system.ruby.delayHist::total                136033906                       # delay histogram for all message
system.ruby.outstanding_req_hist_seqr::bucket_size            1                      
system.ruby.outstanding_req_hist_seqr::max_bucket            9                      
system.ruby.outstanding_req_hist_seqr::samples   3806988976                      
system.ruby.outstanding_req_hist_seqr::mean     1.000000                      
system.ruby.outstanding_req_hist_seqr::gmean     1.000000                      
system.ruby.outstanding_req_hist_seqr::stdev     0.000230                      
system.ruby.outstanding_req_hist_seqr    |           0      0.00%      0.00% |  3806988774    100.00%    100.00% |         202      0.00%    100.00% |           0      0.00%    100.00% |           0      0.00%    100.00% |           0      0.00%    100.00% |           0      0.00%    100.00% |           0      0.00%    100.00% |           0      0.00%    100.00% |           0      0.00%    100.00%
system.ruby.outstanding_req_hist_seqr::total   3806988976                      
system.ruby.latency_hist_seqr::bucket_size          256                      
system.ruby.latency_hist_seqr::max_bucket         2559                      
system.ruby.latency_hist_seqr::samples     3806988976                      
system.ruby.latency_hist_seqr::mean          1.196476                      
system.ruby.latency_hist_seqr::gmean         1.038656                      
system.ruby.latency_hist_seqr::stdev         4.013983                      
system.ruby.latency_hist_seqr            |  3806894272    100.00%    100.00% |       66841      0.00%    100.00% |       26863      0.00%    100.00% |         643      0.00%    100.00% |         331      0.00%    100.00% |          23      0.00%    100.00% |           2      0.00%    100.00% |           1      0.00%    100.00% |           0      0.00%    100.00% |           0      0.00%    100.00%
system.ruby.latency_hist_seqr::total       3806988976                      
system.ruby.hit_latency_hist_seqr::bucket_size            1                      
system.ruby.hit_latency_hist_seqr::max_bucket            9                      
system.ruby.hit_latency_hist_seqr::samples   3729360451                      
system.ruby.hit_latency_hist_seqr::mean             1                      
system.ruby.hit_latency_hist_seqr::gmean            1                      
system.ruby.hit_latency_hist_seqr        |           0      0.00%      0.00% |  3729360451    100.00%    100.00% |           0      0.00%    100.00% |           0      0.00%    100.00% |           0      0.00%    100.00% |           0      0.00%    100.00% |           0      0.00%    100.00% |           0      0.00%    100.00% |           0      0.00%    100.00% |           0      0.00%    100.00%
[...]
system.ruby.L1Cache_Controller.I.Load::total      9991256                      
system.ruby.L1Cache_Controller.I.Store   |       31355      4.36%      4.36% |       14912      2.08%      6.44% |      650106     90.46%     96.90% |       22270      3.10%    100.00%
system.ruby.L1Cache_Controller.I.Store::total       718643                      
system.ruby.L1Cache_Controller.I.Inv     |        7708     22.52%     22.52% |        7301     21.33%     43.84% |       12345     36.06%     79.91% |        6879     20.09%    100.00%
system.ruby.L1Cache_Controller.I.Inv::total        34233                      
system.ruby.L1Cache_Controller.S.Load    |      287179     28.43%     28.43% |      230009     22.77%     51.20% |      231972     22.96%     74.17% |      260966     25.83%    100.00%
system.ruby.L1Cache_Controller.S.Load::total      1010126                      
system.ruby.L1Cache_Controller.S.Store   |        6358     44.47%     44.47% |        1982     13.86%     58.33% |        2986     20.89%     79.22% |        2971     20.78%    100.00%
system.ruby.L1Cache_Controller.S.Store::total        14297                      
system.ruby.L1Cache_Controller.S.L0_Invalidate_Own |       62907     19.22%     19.22% |       45563     13.92%     33.13% |      167516     51.17%     84.30% |       51390     15.70%    100.00%
system.ruby.L1Cache_Controller.S.L0_Invalidate_Own::total       327376                      
system.ruby.L1Cache_Controller.S.L0_Invalidate_Else |       13730     28.02%     28.02% |       14699     30.00%     58.02% |        2799      5.71%     63.74% |       17768     36.26%    100.00%
system.ruby.L1Cache_Controller.S.L0_Invalidate_Else::total        48996                      
system.ruby.L1Cache_Controller.SS.Load   |        4362     30.93%     30.93% |        6164     43.70%     74.63% |         549      3.89%     78.52% |        3029     21.48%    100.00%
system.ruby.L1Cache_Controller.SS.Load::total        14104                      
system.ruby.L1Cache_Controller.SS.Store  |        1254     83.71%     83.71% |          43      2.87%     86.58% |          16      1.07%     87.65% |         185     12.35%    100.00%
system.ruby.L1Cache_Controller.SS.Store::total         1498                      
system.ruby.L1Cache_Controller.SS.Inv    |       16995     25.50%     25.50% |       22673     34.02%     59.51% |        3854      5.78%     65.30% |       23132     34.70%    100.00%
system.ruby.L1Cache_Controller.SS.Inv::total        66654                      
system.ruby.L1Cache_Controller.SS.L1_Replacement |       63738     19.14%     19.14% |       46500     13.97%     33.11% |      169608     50.94%     84.05% |       53105     15.95%    100.00%
system.ruby.L1Cache_Controller.SS.L1_Replacement::total       332951                      
system.ruby.L1Cache_Controller.E.WriteBack |       70072      0.85%      0.85% |       33040      0.40%      1.24% |     8140281     98.22%     99.47% |       44003      0.53%    100.00%
system.ruby.L1Cache_Controller.E.WriteBack::total      8287396                      
system.ruby.L1Cache_Controller.E.L0_Invalidate_Own |         713      0.05%      0.05% |         166      0.01%      0.07% |     1318176     99.90%     99.97% |         444      0.03%    100.00%
system.ruby.L1Cache_Controller.E.L0_Invalidate_Own::total      1319499                      
system.ruby.L1Cache_Controller.E.L0_Invalidate_Else |        1098     14.09%     14.09% |        4093     52.53%     66.62% |         196      2.52%     69.14% |        2405     30.86%    100.00%
system.ruby.L1Cache_Controller.E.L0_Invalidate_Else::total         7792                      
system.ruby.L1Cache_Controller.EE.Inv    |         740     33.65%     33.65% |         594     27.01%     60.66% |          22      1.00%     61.66% |         843     38.34%    100.00%
system.ruby.L1Cache_Controller.EE.Inv::total         2199                      
system.ruby.L1Cache_Controller.EE.L1_Replacement |         663      0.05%      0.05% |         138      0.01%      0.06% |     1317774     99.91%     99.97% |         374      0.03%    100.00%
system.ruby.L1Cache_Controller.EE.L1_Replacement::total      1318949                      
system.ruby.L1Cache_Controller.EE.Fwd_GETX |           9     64.29%     64.29% |           2     14.29%     78.57% |           2     14.29%     92.86% |           1      7.14%    100.00%
system.ruby.L1Cache_Controller.EE.Fwd_GETX::total           14                      
system.ruby.L1Cache_Controller.EE.Fwd_GETS |         201      4.25%      4.25% |        3196     67.64%     71.89% |         153      3.24%     75.13% |        1175     24.87%    100.00%
system.ruby.L1Cache_Controller.EE.Fwd_GETS::total         4725                      
system.ruby.L1Cache_Controller.M.WriteBack |      281234      0.42%      0.42% |      137436      0.21%      0.63% |    65582312     99.07%     99.71% |      194382      0.29%    100.00%
system.ruby.L1Cache_Controller.M.WriteBack::total     66195364                      
system.ruby.L1Cache_Controller.M.L0_Invalidate_Own |        4155      0.38%      0.38% |        1171      0.11%      0.49% |     1081812     99.33%     99.82% |        2010      0.18%    100.00%
system.ruby.L1Cache_Controller.M.L0_Invalidate_Own::total      1089148                      
system.ruby.L1Cache_Controller.M.L0_Invalidate_Else |        7277     36.90%     36.90% |        5967     30.26%     67.15% |         898      4.55%     71.71% |        5580     28.29%    100.00%
system.ruby.L1Cache_Controller.M.L0_Invalidate_Else::total        19722                      
system.ruby.L1Cache_Controller.MM.Load   |      190815      0.30%      0.30% |       86403      0.13%      0.43% |    63864730     99.38%     99.81% |      124381      0.19%    100.00%
system.ruby.L1Cache_Controller.MM.Load::total     64266329                      
system.ruby.L1Cache_Controller.MM.Store  |       62875      2.73%      2.73% |       41234      1.79%      4.52% |     2147182     93.22%     97.74% |       52166      2.26%    100.00%
system.ruby.L1Cache_Controller.MM.Store::total      2303457                      
system.ruby.L1Cache_Controller.MM.Inv    |       12300     40.51%     40.51% |        9361     30.83%     71.34% |         733      2.41%     73.76% |        7968     26.24%    100.00%
system.ruby.L1Cache_Controller.MM.Inv::total        30362                      
system.ruby.L1Cache_Controller.MM.L1_Replacement |       85590      0.96%      0.96% |       28420      0.32%      1.27% |     8788752     98.15%     99.43% |       51459      0.57%    100.00%
system.ruby.L1Cache_Controller.MM.L1_Replacement::total      8954221                      
system.ruby.L1Cache_Controller.MM.Fwd_GETX |        1836     39.45%     39.45% |         700     15.04%     54.49% |         859     18.46%     72.95% |        1259     27.05%    100.00%
system.ruby.L1Cache_Controller.MM.Fwd_GETX::total         4654                      
system.ruby.L1Cache_Controller.MM.Fwd_GETS |        9511     28.04%     28.04% |       11864     34.97%     63.01% |        3404     10.03%     73.04% |        9146     26.96%    100.00%
system.ruby.L1Cache_Controller.MM.Fwd_GETS::total        33925                      
system.ruby.L1Cache_Controller.IS.Data_Exclusive |       71874      0.75%      0.75% |       37302      0.39%      1.14% |     9458663     98.38%     99.51% |       46853      0.49%    100.00%
system.ruby.L1Cache_Controller.IS.Data_Exclusive::total      9614692                      
system.ruby.L1Cache_Controller.IS.DataS_fromL1 |        9472     24.51%     24.51% |        8994     23.27%     47.78% |        7993     20.68%     68.46% |       12191     31.54%    100.00%
system.ruby.L1Cache_Controller.IS.DataS_fromL1::total        38650                      
system.ruby.L1Cache_Controller.IS.Data_all_Acks |       69170     20.47%     20.47% |       47088     13.93%     34.40% |      164805     48.77%     83.18% |       56851     16.82%    100.00%
system.ruby.L1Cache_Controller.IS.Data_all_Acks::total       337914                      
system.ruby.L1Cache_Controller.IM.Data   |        2935     46.93%     46.93% |         164      2.62%     49.55% |        1228     19.64%     69.19% |        1927     30.81%    100.00%
system.ruby.L1Cache_Controller.IM.Data::total         6254                      
system.ruby.L1Cache_Controller.IM.Data_all_Acks |       28421      3.99%      3.99% |       14749      2.07%      6.06% |      648878     91.08%     97.14% |       20344      2.86%    100.00%
system.ruby.L1Cache_Controller.IM.Data_all_Acks::total       712392                      
system.ruby.L1Cache_Controller.SM.Inv    |           1     33.33%     33.33% |           1     33.33%     66.67% |           0      0.00%     66.67% |           1     33.33%    100.00%
system.ruby.L1Cache_Controller.SM.Inv::total            3                      
system.ruby.L1Cache_Controller.SM.Ack    |       22050     53.56%     53.56% |        3245      7.88%     61.44% |        8901     21.62%     83.06% |        6972     16.94%    100.00%
system.ruby.L1Cache_Controller.SM.Ack::total        41168                      
system.ruby.L1Cache_Controller.SM.Ack_all |       10546     47.84%     47.84% |        2188      9.92%     57.76% |        4230     19.19%     76.95% |        5082     23.05%    100.00%
system.ruby.L1Cache_Controller.SM.Ack_all::total        22046                      
system.ruby.L1Cache_Controller.M_I.Fwd_GETX |           0      0.00%      0.00% |           0      0.00%      0.00% |           1    100.00%    100.00% |           0      0.00%    100.00%
system.ruby.L1Cache_Controller.M_I.Fwd_GETX::total            1                      
system.ruby.L1Cache_Controller.M_I.WB_Ack |       86253      0.84%      0.84% |       28558      0.28%      1.12% |    10106525     98.38%     99.50% |       51833      0.50%    100.00%
system.ruby.L1Cache_Controller.M_I.WB_Ack::total     10273169                      
system.ruby.L1Cache_Controller.SINK_WB_ACK.WB_Ack |           0      0.00%      0.00% |           0      0.00%      0.00% |           1    100.00%    100.00% |           0      0.00%    100.00%
system.ruby.L1Cache_Controller.SINK_WB_ACK.WB_Ack::total            1                      
system.ruby.L1Cache_Controller.S_IL0.Store |           0      0.00%      0.00% |           0      0.00%      0.00% |           0      0.00%      0.00% |           1    100.00%    100.00%
system.ruby.L1Cache_Controller.S_IL0.Store::total            1                      
system.ruby.L1Cache_Controller.S_IL0.L0_Invalidate_Own |       62907     19.22%     19.22% |       45563     13.92%     33.13% |      167516     51.17%     84.30% |       51390     15.70%    100.00%
system.ruby.L1Cache_Controller.S_IL0.L0_Invalidate_Own::total       327376                      
system.ruby.L1Cache_Controller.S_IL0.L0_Invalidate_Else |       13730     28.02%     28.02% |       14699     30.00%     58.02% |        2799      5.71%     63.74% |       17768     36.26%    100.00%
system.ruby.L1Cache_Controller.S_IL0.L0_Invalidate_Else::total        48996                      
system.ruby.L1Cache_Controller.S_IL0.L0_Ack |       76637     20.36%     20.36% |       60262     16.01%     36.37% |      170315     45.25%     81.63% |       69158     18.37%    100.00%
system.ruby.L1Cache_Controller.S_IL0.L0_Ack::total       376372                      
system.ruby.L1Cache_Controller.E_IL0.L0_DataAck |         198     14.10%     14.10% |         329     23.43%     37.54% |         421     29.99%     67.52% |         456     32.48%    100.00%
system.ruby.L1Cache_Controller.E_IL0.L0_DataAck::total         1404                      
system.ruby.L1Cache_Controller.E_IL0.L0_Invalidate_Own |         713      0.05%      0.05% |         166      0.01%      0.07% |     1318176     99.90%     99.97% |         444      0.03%    100.00%
system.ruby.L1Cache_Controller.E_IL0.L0_Invalidate_Own::total      1319499                      
system.ruby.L1Cache_Controller.E_IL0.L0_Invalidate_Else |        1098     14.09%     14.09% |        4093     52.53%     66.62% |         196      2.52%     69.14% |        2405     30.86%    100.00%
system.ruby.L1Cache_Controller.E_IL0.L0_Invalidate_Else::total         7792                      
system.ruby.L1Cache_Controller.E_IL0.L0_Ack |        1613      0.12%      0.12% |        3930      0.30%      0.42% |     1317951     99.40%     99.82% |        2393      0.18%    100.00%
system.ruby.L1Cache_Controller.E_IL0.L0_Ack::total      1325887                      
system.ruby.L1Cache_Controller.M_IL0.WriteBack |           0      0.00%      0.00% |           1    100.00%    100.00% |           0      0.00%    100.00% |           0      0.00%    100.00%
system.ruby.L1Cache_Controller.M_IL0.WriteBack::total            1                      
system.ruby.L1Cache_Controller.M_IL0.L0_DataAck |        7797     20.83%     20.83% |        5004     13.37%     34.20% |       19135     51.13%     85.33% |        5489     14.67%    100.00%
system.ruby.L1Cache_Controller.M_IL0.L0_DataAck::total        37425                      
system.ruby.L1Cache_Controller.M_IL0.L0_Invalidate_Own |        4155      0.38%      0.38% |        1171      0.11%      0.49% |     1081812     99.33%     99.82% |        2010      0.18%    100.00%
system.ruby.L1Cache_Controller.M_IL0.L0_Invalidate_Own::total      1089148                      
system.ruby.L1Cache_Controller.M_IL0.L0_Invalidate_Else |        7277     36.90%     36.90% |        5967     30.26%     67.15% |         898      4.55%     71.71% |        5580     28.29%    100.00%
system.ruby.L1Cache_Controller.M_IL0.L0_Invalidate_Else::total        19722                      
system.ruby.L1Cache_Controller.M_IL0.L0_Ack |        3635      0.34%      0.34% |        2133      0.20%      0.54% |     1063575     99.27%     99.80% |        2101      0.20%    100.00%
system.ruby.L1Cache_Controller.M_IL0.L0_Ack::total      1071444                      
system.ruby.L1Cache_Controller.MM_IL0.Fwd_GETS |           0      0.00%      0.00% |           1    100.00%    100.00% |           0      0.00%    100.00% |           0      0.00%    100.00%
system.ruby.L1Cache_Controller.MM_IL0.Fwd_GETS::total            1                      
system.ruby.L1Cache_Controller.MM_IL0.L0_Ack |           0      0.00%      0.00% |           1    100.00%    100.00% |           0      0.00%    100.00% |           0      0.00%    100.00%
system.ruby.L1Cache_Controller.MM_IL0.L0_Ack::total            1                      
system.ruby.L2Cache_Controller.L1_GETS        9991454      0.00%      0.00%
system.ruby.L2Cache_Controller.L1_GETX         718650      0.00%      0.00%
system.ruby.L2Cache_Controller.L1_UPGRADE        15795      0.00%      0.00%
system.ruby.L2Cache_Controller.L1_PUTX       10273170      0.00%      0.00%
system.ruby.L2Cache_Controller.L1_PUTX_old            1      0.00%      0.00%
system.ruby.L2Cache_Controller.L2_Replacement       987828      0.00%      0.00%
system.ruby.L2Cache_Controller.L2_Replacement_clean      1000252      0.00%      0.00%
system.ruby.L2Cache_Controller.Mem_Data       1990659      0.00%      0.00%
system.ruby.L2Cache_Controller.Mem_Ack        1988086      0.00%      0.00%
system.ruby.L2Cache_Controller.WB_Data          31288      0.00%      0.00%
system.ruby.L2Cache_Controller.WB_Data_clean        37724      0.00%      0.00%
system.ruby.L2Cache_Controller.Ack              36779      0.00%      0.00%
system.ruby.L2Cache_Controller.Ack_all          18888      0.00%      0.00%
system.ruby.L2Cache_Controller.Unblock          38650      0.00%      0.00%
system.ruby.L2Cache_Controller.Exclusive_Unblock     10349129      0.00%      0.00%
system.ruby.L2Cache_Controller.MEM_Inv             12      0.00%      0.00%
system.ruby.L2Cache_Controller.NP.L1_GETS      1491080      0.00%      0.00%
system.ruby.L2Cache_Controller.NP.L1_GETX       499579      0.00%      0.00%
system.ruby.L2Cache_Controller.SS.L1_GETS       337748      0.00%      0.00%
system.ruby.L2Cache_Controller.SS.L1_GETX         6254      0.00%      0.00%
system.ruby.L2Cache_Controller.SS.L1_UPGRADE        15792      0.00%      0.00%
system.ruby.L2Cache_Controller.SS.L2_Replacement          773      0.00%      0.00%
system.ruby.L2Cache_Controller.SS.L2_Replacement_clean        15916      0.00%      0.00%
system.ruby.L2Cache_Controller.M.L1_GETS      8123695      0.00%      0.00%
system.ruby.L2Cache_Controller.M.L1_GETX       208144      0.00%      0.00%
system.ruby.L2Cache_Controller.M.L2_Replacement       984817      0.00%      0.00%
system.ruby.L2Cache_Controller.M.L2_Replacement_clean       954017      0.00%      0.00%
system.ruby.L2Cache_Controller.M.MEM_Inv            2      0.00%      0.00%
system.ruby.L2Cache_Controller.MT.L1_GETS        38650      0.00%      0.00%
system.ruby.L2Cache_Controller.MT.L1_GETX         4669      0.00%      0.00%
system.ruby.L2Cache_Controller.MT.L1_PUTX     10273169      0.00%      0.00%
system.ruby.L2Cache_Controller.MT.L1_PUTX_old            1      0.00%      0.00%
system.ruby.L2Cache_Controller.MT.L2_Replacement         2238      0.00%      0.00%
system.ruby.L2Cache_Controller.MT.L2_Replacement_clean        30319      0.00%      0.00%
system.ruby.L2Cache_Controller.MT.MEM_Inv            4      0.00%      0.00%
system.ruby.L2Cache_Controller.M_I.Mem_Ack      1988086      0.00%      0.00%
system.ruby.L2Cache_Controller.M_I.MEM_Inv            2      0.00%      0.00%
system.ruby.L2Cache_Controller.MT_I.WB_Data         1663      0.00%      0.00%
system.ruby.L2Cache_Controller.MT_I.WB_Data_clean          397      0.00%      0.00%
system.ruby.L2Cache_Controller.MT_I.Ack_all          182      0.00%      0.00%
system.ruby.L2Cache_Controller.MT_I.MEM_Inv            4      0.00%      0.00%
system.ruby.L2Cache_Controller.MCT_I.WB_Data        16717      0.00%      0.00%
system.ruby.L2Cache_Controller.MCT_I.WB_Data_clean        11585      0.00%      0.00%
system.ruby.L2Cache_Controller.MCT_I.Ack_all         2017      0.00%      0.00%
system.ruby.L2Cache_Controller.I_I.Ack          35800      0.00%      0.00%
system.ruby.L2Cache_Controller.I_I.Ack_all        15916      0.00%      0.00%
system.ruby.L2Cache_Controller.S_I.Ack            979      0.00%      0.00%
system.ruby.L2Cache_Controller.S_I.Ack_all          773      0.00%      0.00%
system.ruby.L2Cache_Controller.ISS.L1_GETS           83      0.00%      0.00%
system.ruby.L2Cache_Controller.ISS.Mem_Data      1490997      0.00%      0.00%
system.ruby.L2Cache_Controller.IS.Mem_Data           83      0.00%      0.00%
system.ruby.L2Cache_Controller.IM.Mem_Data       499579      0.00%      0.00%
system.ruby.L2Cache_Controller.SS_MB.L1_GETS           49      0.00%      0.00%
system.ruby.L2Cache_Controller.SS_MB.L1_GETX            3      0.00%      0.00%
system.ruby.L2Cache_Controller.SS_MB.L1_UPGRADE            3      0.00%      0.00%
system.ruby.L2Cache_Controller.SS_MB.Exclusive_Unblock        22046      0.00%      0.00%
system.ruby.L2Cache_Controller.MT_MB.L1_GETS          141      0.00%      0.00%
system.ruby.L2Cache_Controller.MT_MB.L1_GETX            1      0.00%      0.00%
system.ruby.L2Cache_Controller.MT_MB.L1_PUTX            1      0.00%      0.00%
system.ruby.L2Cache_Controller.MT_MB.Exclusive_Unblock     10327083      0.00%      0.00%
system.ruby.L2Cache_Controller.MT_IIB.L1_GETS            8      0.00%      0.00%
system.ruby.L2Cache_Controller.MT_IIB.WB_Data        12901      0.00%      0.00%
system.ruby.L2Cache_Controller.MT_IIB.WB_Data_clean        25719      0.00%      0.00%
system.ruby.L2Cache_Controller.MT_IIB.Unblock           30      0.00%      0.00%
system.ruby.L2Cache_Controller.MT_IB.WB_Data            7      0.00%      0.00%
system.ruby.L2Cache_Controller.MT_IB.WB_Data_clean           23      0.00%      0.00%
system.ruby.L2Cache_Controller.MT_SB.Unblock        38620      0.00%      0.00%

---------- End Simulation Statistics   ----------
