
---------- Begin Simulation Statistics ----------
sim_seconds                                  0.513078                       # Number of seconds simulated
sim_ticks                                513078222500                       # Number of ticks simulated
final_tick                               52420656633501                       # Number of ticks from beginning of simulation (restored from checkpoints and never reset)
sim_freq                                 1000000000000                       # Frequency of simulated ticks
host_inst_rate                                 134463                       # Simulator instruction rate (inst/s)
host_op_rate                                   242696                       # Simulator op (including micro ops) rate (op/s)
host_tick_rate                              256513572                       # Simulator tick rate (ticks/s)
host_mem_usage                                1817436                       # Number of bytes of host memory used
host_seconds                                  2000.20                       # Real time elapsed on the host
sim_insts                                   268953579                       # Number of instructions simulated
sim_ops                                     485440058                       # Number of ops (including micro ops) simulated
system.voltage_domain.voltage                       1                       # Voltage in Volts
system.clk_domain.clock                          1000                       # Clock period in ticks
system.mem_ctrls.bytes_read::ruby.dir_cntrl0       455808                       # Number of bytes read from this memory
system.mem_ctrls.bytes_read::total             455808                       # Number of bytes read from this memory
system.mem_ctrls.bytes_written::ruby.dir_cntrl0       166208                       # Number of bytes written to this memory
system.mem_ctrls.bytes_written::total          166208                       # Number of bytes written to this memory
system.mem_ctrls.num_reads::ruby.dir_cntrl0         7122                       # Number of read requests responded to by this memory
system.mem_ctrls.num_reads::total                7122                       # Number of read requests responded to by this memory
system.mem_ctrls.num_writes::ruby.dir_cntrl0         2597                       # Number of write requests responded to by this memory
system.mem_ctrls.num_writes::total               2597                       # Number of write requests responded to by this memory
system.mem_ctrls.bw_read::ruby.dir_cntrl0       888379                       # Total read bandwidth from this memory (bytes/s)
system.mem_ctrls.bw_read::total                888379                       # Total read bandwidth from this memory (bytes/s)
system.mem_ctrls.bw_write::ruby.dir_cntrl0       323943                       # Write bandwidth from this memory (bytes/s)
system.mem_ctrls.bw_write::total               323943                       # Write bandwidth from this memory (bytes/s)
system.mem_ctrls.bw_total::ruby.dir_cntrl0      1212322                       # Total bandwidth to/from this memory (bytes/s)
system.mem_ctrls.bw_total::total              1212322                       # Total bandwidth to/from this memory (bytes/s)
system.mem_ctrls.readReqs                        7122                       # Number of read requests accepted
system.mem_ctrls.writeReqs                       2597                       # Number of write requests accepted
system.mem_ctrls.readBursts                      7122                       # Number of DRAM read bursts, including those serviced by the write queue
system.mem_ctrls.writeBursts                     2597                       # Number of DRAM write bursts, including those merged in the write queue
system.mem_ctrls.bytesReadDRAM                 453312                       # Total number of bytes read from DRAM
system.mem_ctrls.bytesReadWrQ                    2496                       # Total number of bytes read from write queue
system.mem_ctrls.bytesWritten                  166912                       # Total number of bytes written to DRAM
system.mem_ctrls.bytesReadSys                  455808                       # Total read bytes from the system interface side
system.mem_ctrls.bytesWrittenSys               166208                       # Total written bytes from the system interface side
system.mem_ctrls.servicedByWrQ                     39                       # Number of DRAM read bursts serviced by the write queue
system.mem_ctrls.mergedWrBursts                     0                       # Number of DRAM write bursts merged with an existing one
system.mem_ctrls.neitherReadNorWriteReqs            0                       # Number of requests that are neither read nor write
system.mem_ctrls.perBankRdBursts::0               278                       # Per bank write bursts
system.mem_ctrls.perBankRdBursts::1               284                       # Per bank write bursts
system.mem_ctrls.perBankRdBursts::2               509                       # Per bank write bursts
system.mem_ctrls.perBankRdBursts::3               423                       # Per bank write bursts
system.mem_ctrls.perBankRdBursts::4               504                       # Per bank write bursts
system.mem_ctrls.perBankRdBursts::5               601                       # Per bank write bursts
system.mem_ctrls.perBankRdBursts::6               491                       # Per bank write bursts
system.mem_ctrls.perBankRdBursts::7               525                       # Per bank write bursts
system.mem_ctrls.perBankRdBursts::8               276                       # Per bank write bursts
system.mem_ctrls.perBankRdBursts::9               340                       # Per bank write bursts
system.mem_ctrls.perBankRdBursts::10              446                       # Per bank write bursts
system.mem_ctrls.perBankRdBursts::11              660                       # Per bank write bursts
system.mem_ctrls.perBankRdBursts::12              323                       # Per bank write bursts
system.mem_ctrls.perBankRdBursts::13              497                       # Per bank write bursts
system.mem_ctrls.perBankRdBursts::14              504                       # Per bank write bursts
system.mem_ctrls.perBankRdBursts::15              422                       # Per bank write bursts
system.mem_ctrls.perBankWrBursts::0               107                       # Per bank write bursts
system.mem_ctrls.perBankWrBursts::1               195                       # Per bank write bursts
system.mem_ctrls.perBankWrBursts::2               183                       # Per bank write bursts
system.mem_ctrls.perBankWrBursts::3               221                       # Per bank write bursts
system.mem_ctrls.perBankWrBursts::4               232                       # Per bank write bursts
system.mem_ctrls.perBankWrBursts::5               156                       # Per bank write bursts
system.mem_ctrls.perBankWrBursts::6               167                       # Per bank write bursts
system.mem_ctrls.perBankWrBursts::7               203                       # Per bank write bursts
system.mem_ctrls.perBankWrBursts::8               194                       # Per bank write bursts
system.mem_ctrls.perBankWrBursts::9               215                       # Per bank write bursts
system.mem_ctrls.perBankWrBursts::10              195                       # Per bank write bursts
system.mem_ctrls.perBankWrBursts::11              137                       # Per bank write bursts
system.mem_ctrls.perBankWrBursts::12                2                       # Per bank write bursts
system.mem_ctrls.perBankWrBursts::13               29                       # Per bank write bursts
system.mem_ctrls.perBankWrBursts::14              298                       # Per bank write bursts
system.mem_ctrls.perBankWrBursts::15               74                       # Per bank write bursts
system.mem_ctrls.numRdRetry                         0                       # Number of times read queue was full causing retry
system.mem_ctrls.numWrRetry                         0                       # Number of times write queue was full causing retry
system.mem_ctrls.totGap                  513077895500                       # Total gap between requests
system.mem_ctrls.readPktSize::0                     0                       # Read request sizes (log2)
system.mem_ctrls.readPktSize::1                     0                       # Read request sizes (log2)
system.mem_ctrls.readPktSize::2                     0                       # Read request sizes (log2)
system.mem_ctrls.readPktSize::3                     0                       # Read request sizes (log2)
system.mem_ctrls.readPktSize::4                     0                       # Read request sizes (log2)
system.mem_ctrls.readPktSize::5                     0                       # Read request sizes (log2)
system.mem_ctrls.readPktSize::6                  7122                       # Read request sizes (log2)
system.mem_ctrls.writePktSize::0                    0                       # Write request sizes (log2)
system.mem_ctrls.writePktSize::1                    0                       # Write request sizes (log2)
system.mem_ctrls.writePktSize::2                    0                       # Write request sizes (log2)
system.mem_ctrls.writePktSize::3                    0                       # Write request sizes (log2)
system.mem_ctrls.writePktSize::4                    0                       # Write request sizes (log2)
system.mem_ctrls.writePktSize::5                    0                       # Write request sizes (log2)
system.mem_ctrls.writePktSize::6                 2597                       # Write request sizes (log2)
system.mem_ctrls.rdQLenPdf::0                    6967                       # What read queue length does an incoming req see
system.mem_ctrls.rdQLenPdf::1                     116                       # What read queue length does an incoming req see
system.mem_ctrls.rdQLenPdf::2                       0                       # What read queue length does an incoming req see
system.mem_ctrls.rdQLenPdf::3                       0                       # What read queue length does an incoming req see
system.mem_ctrls.rdQLenPdf::4                       0                       # What read queue length does an incoming req see
system.mem_ctrls.rdQLenPdf::5                       0                       # What read queue length does an incoming req see
system.mem_ctrls.rdQLenPdf::6                       0                       # What read queue length does an incoming req see
system.mem_ctrls.rdQLenPdf::7                       0                       # What read queue length does an incoming req see
system.mem_ctrls.rdQLenPdf::8                       0                       # What read queue length does an incoming req see
system.mem_ctrls.rdQLenPdf::9                       0                       # What read queue length does an incoming req see
system.mem_ctrls.rdQLenPdf::10                      0                       # What read queue length does an incoming req see
system.mem_ctrls.rdQLenPdf::11                      0                       # What read queue length does an incoming req see
system.mem_ctrls.rdQLenPdf::12                      0                       # What read queue length does an incoming req see
system.mem_ctrls.rdQLenPdf::13                      0                       # What read queue length does an incoming req see
system.mem_ctrls.rdQLenPdf::14                      0                       # What read queue length does an incoming req see
system.mem_ctrls.rdQLenPdf::15                      0                       # What read queue length does an incoming req see
system.mem_ctrls.rdQLenPdf::16                      0                       # What read queue length does an incoming req see
system.mem_ctrls.rdQLenPdf::17                      0                       # What read queue length does an incoming req see
system.mem_ctrls.rdQLenPdf::18                      0                       # What read queue length does an incoming req see
system.mem_ctrls.rdQLenPdf::19                      0                       # What read queue length does an incoming req see
system.mem_ctrls.rdQLenPdf::20                      0                       # What read queue length does an incoming req see
system.mem_ctrls.rdQLenPdf::21                      0                       # What read queue length does an incoming req see
system.mem_ctrls.rdQLenPdf::22                      0                       # What read queue length does an incoming req see
system.mem_ctrls.rdQLenPdf::23                      0                       # What read queue length does an incoming req see
system.mem_ctrls.rdQLenPdf::24                      0                       # What read queue length does an incoming req see
system.mem_ctrls.rdQLenPdf::25                      0                       # What read queue length does an incoming req see
system.mem_ctrls.rdQLenPdf::26                      0                       # What read queue length does an incoming req see
system.mem_ctrls.rdQLenPdf::27                      0                       # What read queue length does an incoming req see
system.mem_ctrls.rdQLenPdf::28                      0                       # What read queue length does an incoming req see
system.mem_ctrls.rdQLenPdf::29                      0                       # What read queue length does an incoming req see
system.mem_ctrls.rdQLenPdf::30                      0                       # What read queue length does an incoming req see
system.mem_ctrls.rdQLenPdf::31                      0                       # What read queue length does an incoming req see
system.mem_ctrls.wrQLenPdf::0                       0                       # What write queue length does an incoming req see
system.mem_ctrls.wrQLenPdf::1                       0                       # What write queue length does an incoming req see
system.mem_ctrls.wrQLenPdf::2                       0                       # What write queue length does an incoming req see
system.mem_ctrls.wrQLenPdf::3                       0                       # What write queue length does an incoming req see
system.mem_ctrls.wrQLenPdf::4                       0                       # What write queue length does an incoming req see
system.mem_ctrls.wrQLenPdf::5                       0                       # What write queue length does an incoming req see
system.mem_ctrls.wrQLenPdf::6                       0                       # What write queue length does an incoming req see
system.mem_ctrls.wrQLenPdf::7                       0                       # What write queue length does an incoming req see
system.mem_ctrls.wrQLenPdf::8                       0                       # What write queue length does an incoming req see
system.mem_ctrls.wrQLenPdf::9                       0                       # What write queue length does an incoming req see
system.mem_ctrls.wrQLenPdf::10                      0                       # What write queue length does an incoming req see
system.mem_ctrls.wrQLenPdf::11                      0                       # What write queue length does an incoming req see
system.mem_ctrls.wrQLenPdf::12                      0                       # What write queue length does an incoming req see
system.mem_ctrls.wrQLenPdf::13                      0                       # What write queue length does an incoming req see
system.mem_ctrls.wrQLenPdf::14                      0                       # What write queue length does an incoming req see
system.mem_ctrls.wrQLenPdf::15                     83                       # What write queue length does an incoming req see
system.mem_ctrls.wrQLenPdf::16                    116                       # What write queue length does an incoming req see
system.mem_ctrls.wrQLenPdf::17                    141                       # What write queue length does an incoming req see
system.mem_ctrls.wrQLenPdf::18                    165                       # What write queue length does an incoming req see
system.mem_ctrls.wrQLenPdf::19                    137                       # What write queue length does an incoming req see
system.mem_ctrls.wrQLenPdf::20                    175                       # What write queue length does an incoming req see
system.mem_ctrls.wrQLenPdf::21                    169                       # What write queue length does an incoming req see
system.mem_ctrls.wrQLenPdf::22                    136                       # What write queue length does an incoming req see
system.mem_ctrls.wrQLenPdf::23                    175                       # What write queue length does an incoming req see
system.mem_ctrls.wrQLenPdf::24                    169                       # What write queue length does an incoming req see
system.mem_ctrls.wrQLenPdf::25                    141                       # What write queue length does an incoming req see
system.mem_ctrls.wrQLenPdf::26                    141                       # What write queue length does an incoming req see
system.mem_ctrls.wrQLenPdf::27                    135                       # What write queue length does an incoming req see
system.mem_ctrls.wrQLenPdf::28                    147                       # What write queue length does an incoming req see
system.mem_ctrls.wrQLenPdf::29                    133                       # What write queue length does an incoming req see
system.mem_ctrls.wrQLenPdf::30                    128                       # What write queue length does an incoming req see
system.mem_ctrls.wrQLenPdf::31                    128                       # What write queue length does an incoming req see
system.mem_ctrls.wrQLenPdf::32                    124                       # What write queue length does an incoming req see
system.mem_ctrls.wrQLenPdf::33                      6                       # What write queue length does an incoming req see
system.mem_ctrls.wrQLenPdf::34                      8                       # What write queue length does an incoming req see
system.mem_ctrls.wrQLenPdf::35                      8                       # What write queue length does an incoming req see
system.mem_ctrls.wrQLenPdf::36                      5                       # What write queue length does an incoming req see
system.mem_ctrls.wrQLenPdf::37                      6                       # What write queue length does an incoming req see
system.mem_ctrls.wrQLenPdf::38                      7                       # What write queue length does an incoming req see
system.mem_ctrls.wrQLenPdf::39                      3                       # What write queue length does an incoming req see
system.mem_ctrls.wrQLenPdf::40                      4                       # What write queue length does an incoming req see
system.mem_ctrls.wrQLenPdf::41                      3                       # What write queue length does an incoming req see
system.mem_ctrls.wrQLenPdf::42                      2                       # What write queue length does an incoming req see
system.mem_ctrls.wrQLenPdf::43                      2                       # What write queue length does an incoming req see
system.mem_ctrls.wrQLenPdf::44                      0                       # What write queue length does an incoming req see
system.mem_ctrls.wrQLenPdf::45                      0                       # What write queue length does an incoming req see
system.mem_ctrls.wrQLenPdf::46                      0                       # What write queue length does an incoming req see
system.mem_ctrls.wrQLenPdf::47                      0                       # What write queue length does an incoming req see
system.mem_ctrls.wrQLenPdf::48                      0                       # What write queue length does an incoming req see
system.mem_ctrls.wrQLenPdf::49                      0                       # What write queue length does an incoming req see
system.mem_ctrls.wrQLenPdf::50                      0                       # What write queue length does an incoming req see
system.mem_ctrls.wrQLenPdf::51                      0                       # What write queue length does an incoming req see
system.mem_ctrls.wrQLenPdf::52                      0                       # What write queue length does an incoming req see
system.mem_ctrls.wrQLenPdf::53                      0                       # What write queue length does an incoming req see
system.mem_ctrls.wrQLenPdf::54                      0                       # What write queue length does an incoming req see
system.mem_ctrls.wrQLenPdf::55                      0                       # What write queue length does an incoming req see
system.mem_ctrls.wrQLenPdf::56                      0                       # What write queue length does an incoming req see
system.mem_ctrls.wrQLenPdf::57                      0                       # What write queue length does an incoming req see
system.mem_ctrls.wrQLenPdf::58                      0                       # What write queue length does an incoming req see
system.mem_ctrls.wrQLenPdf::59                      0                       # What write queue length does an incoming req see
system.mem_ctrls.wrQLenPdf::60                      0                       # What write queue length does an incoming req see
system.mem_ctrls.wrQLenPdf::61                      0                       # What write queue length does an incoming req see
system.mem_ctrls.wrQLenPdf::62                      0                       # What write queue length does an incoming req see
system.mem_ctrls.wrQLenPdf::63                      0                       # What write queue length does an incoming req see
system.mem_ctrls.bytesPerActivate::samples         3377                       # Bytes accessed per row activation
system.mem_ctrls.bytesPerActivate::mean    183.737045                       # Bytes accessed per row activation
system.mem_ctrls.bytesPerActivate::gmean   114.503849                       # Bytes accessed per row activation
system.mem_ctrls.bytesPerActivate::stdev   250.354113                       # Bytes accessed per row activation
system.mem_ctrls.bytesPerActivate::0-127         1849     54.75%     54.75% # Bytes accessed per row activation
system.mem_ctrls.bytesPerActivate::128-255          957     28.34%     83.09% # Bytes accessed per row activation
system.mem_ctrls.bytesPerActivate::256-383          170      5.03%     88.13% # Bytes accessed per row activation
system.mem_ctrls.bytesPerActivate::384-511           84      2.49%     90.61% # Bytes accessed per row activation
system.mem_ctrls.bytesPerActivate::512-639           43      1.27%     91.89% # Bytes accessed per row activation
system.mem_ctrls.bytesPerActivate::640-767           32      0.95%     92.83% # Bytes accessed per row activation
system.mem_ctrls.bytesPerActivate::768-895           16      0.47%     93.31% # Bytes accessed per row activation
system.mem_ctrls.bytesPerActivate::896-1023           20      0.59%     93.90% # Bytes accessed per row activation
system.mem_ctrls.bytesPerActivate::1024-1151          206      6.10%    100.00% # Bytes accessed per row activation
system.mem_ctrls.bytesPerActivate::total         3377                       # Bytes accessed per row activation
system.mem_ctrls.rdPerTurnAround::samples          120                       # Reads before turning the bus around for writes
system.mem_ctrls.rdPerTurnAround::mean     183.975000                       # Reads before turning the bus around for writes
system.mem_ctrls.rdPerTurnAround::stdev   1383.142084                       # Reads before turning the bus around for writes
system.mem_ctrls.rdPerTurnAround::0-511           117     97.50%     97.50% # Reads before turning the bus around for writes
system.mem_ctrls.rdPerTurnAround::512-1023            1      0.83%     98.33% # Reads before turning the bus around for writes
system.mem_ctrls.rdPerTurnAround::1024-1535            1      0.83%     99.17% # Reads before turning the bus around for writes
system.mem_ctrls.rdPerTurnAround::14848-15359            1      0.83%    100.00% # Reads before turning the bus around for writes
system.mem_ctrls.rdPerTurnAround::total           120                       # Reads before turning the bus around for writes
system.mem_ctrls.wrPerTurnAround::samples          120                       # Writes before turning the bus around for reads
system.mem_ctrls.wrPerTurnAround::mean      21.733333                       # Writes before turning the bus around for reads
system.mem_ctrls.wrPerTurnAround::gmean     21.190521                       # Writes before turning the bus around for reads
system.mem_ctrls.wrPerTurnAround::stdev      5.147788                       # Writes before turning the bus around for reads
system.mem_ctrls.wrPerTurnAround::16               32     26.67%     26.67% # Writes before turning the bus around for reads
system.mem_ctrls.wrPerTurnAround::17                2      1.67%     28.33% # Writes before turning the bus around for reads
system.mem_ctrls.wrPerTurnAround::18                4      3.33%     31.67% # Writes before turning the bus around for reads
system.mem_ctrls.wrPerTurnAround::19                1      0.83%     32.50% # Writes before turning the bus around for reads
system.mem_ctrls.wrPerTurnAround::21               25     20.83%     53.33% # Writes before turning the bus around for reads
system.mem_ctrls.wrPerTurnAround::22                8      6.67%     60.00% # Writes before turning the bus around for reads
system.mem_ctrls.wrPerTurnAround::23                3      2.50%     62.50% # Writes before turning the bus around for reads
system.mem_ctrls.wrPerTurnAround::24               25     20.83%     83.33% # Writes before turning the bus around for reads
system.mem_ctrls.wrPerTurnAround::25                1      0.83%     84.17% # Writes before turning the bus around for reads
system.mem_ctrls.wrPerTurnAround::26                2      1.67%     85.83% # Writes before turning the bus around for reads
system.mem_ctrls.wrPerTurnAround::28               12     10.00%     95.83% # Writes before turning the bus around for reads
system.mem_ctrls.wrPerTurnAround::33                1      0.83%     96.67% # Writes before turning the bus around for reads
system.mem_ctrls.wrPerTurnAround::34                1      0.83%     97.50% # Writes before turning the bus around for reads
system.mem_ctrls.wrPerTurnAround::38                1      0.83%     98.33% # Writes before turning the bus around for reads
system.mem_ctrls.wrPerTurnAround::40                1      0.83%     99.17% # Writes before turning the bus around for reads
system.mem_ctrls.wrPerTurnAround::43                1      0.83%    100.00% # Writes before turning the bus around for reads
system.mem_ctrls.wrPerTurnAround::total           120                       # Writes before turning the bus around for reads
system.mem_ctrls.totQLat                     76767495                       # Total ticks spent queuing
system.mem_ctrls.totMemAccLat               209573745                       # Total ticks spent from burst creation until serviced by the DRAM
system.mem_ctrls.totBusLat                   35415000                       # Total ticks spent in databus transfers
system.mem_ctrls.avgQLat                     10838.27                       # Average queueing delay per DRAM burst
system.mem_ctrls.avgBusLat                    5000.00                       # Average bus latency per DRAM burst
system.mem_ctrls.avgMemAccLat                29588.27                       # Average memory access latency per DRAM burst
system.mem_ctrls.avgRdBW                         0.88                       # Average DRAM read bandwidth in MiByte/s
system.mem_ctrls.avgWrBW                         0.33                       # Average achieved write bandwidth in MiByte/s
system.mem_ctrls.avgRdBWSys                      0.89                       # Average system read bandwidth in MiByte/s
system.mem_ctrls.avgWrBWSys                      0.32                       # Average system write bandwidth in MiByte/s
system.mem_ctrls.peakBW                      12800.00                       # Theoretical peak bandwidth in MiByte/s
system.mem_ctrls.busUtil                         0.01                       # Data bus utilization in percentage
system.mem_ctrls.busUtilRead                     0.01                       # Data bus utilization in percentage for reads
system.mem_ctrls.busUtilWrite                    0.00                       # Data bus utilization in percentage for writes
system.mem_ctrls.avgRdQLen                       1.00                       # Average read queue length when enqueuing
system.mem_ctrls.avgWrQLen                      24.90                       # Average write queue length when enqueuing
system.mem_ctrls.readRowHits                     4101                       # Number of row buffer hits during reads
system.mem_ctrls.writeRowHits                    2213                       # Number of row buffer hits during writes
system.mem_ctrls.readRowHitRate                 57.90                       # Row buffer hit rate for reads
system.mem_ctrls.writeRowHitRate                85.21                       # Row buffer hit rate for writes
system.mem_ctrls.avgGap                   52791222.91                       # Average gap between requests
system.mem_ctrls.pageHitRate                    65.23                       # Row buffer hit rate, read and write combined
system.mem_ctrls_0.actEnergy                 29907360                       # Energy for activate commands per rank (pJ)
system.mem_ctrls_0.preEnergy                 16318500                       # Energy for precharge commands per rank (pJ)
system.mem_ctrls_0.readEnergy                91330200                       # Energy for read commands per rank (pJ)
system.mem_ctrls_0.writeEnergy                9486720                       # Energy for write commands per rank (pJ)
system.mem_ctrls_0.refreshEnergy          33759229920                       # Energy for refresh commands per rank (pJ)
system.mem_ctrls_0.actBackEnergy          14391831105                       # Energy for active background per rank (pJ)
system.mem_ctrls_0.preBackEnergy         297495851250                       # Energy for precharge background per rank (pJ)
system.mem_ctrls_0.totalEnergy           345793955055                       # Total energy per rank (pJ)
system.mem_ctrls_0.averagePower            669.019077                       # Core power per rank (mW)
system.mem_ctrls_0.memoryStateTime::IDLE 493397630250                       # Time in different power states
system.mem_ctrls_0.memoryStateTime::REF   17132960000                       # Time in different power states
system.mem_ctrls_0.memoryStateTime::PRE_PDN            0                       # Time in different power states
system.mem_ctrls_0.memoryStateTime::ACT    2548052000                       # Time in different power states
system.mem_ctrls_0.memoryStateTime::ACT_PDN            0                       # Time in different power states
system.mem_ctrls_1.actEnergy                 24146640                       # Energy for activate commands per rank (pJ)
system.mem_ctrls_1.preEnergy                 13175250                       # Energy for precharge commands per rank (pJ)
system.mem_ctrls_1.readEnergy                80893800                       # Energy for read commands per rank (pJ)
system.mem_ctrls_1.writeEnergy                7413120                       # Energy for write commands per rank (pJ)
system.mem_ctrls_1.refreshEnergy          33759229920                       # Energy for refresh commands per rank (pJ)
system.mem_ctrls_1.actBackEnergy          14176135980                       # Energy for active background per rank (pJ)
system.mem_ctrls_1.preBackEnergy         297685049250                       # Energy for precharge background per rank (pJ)
system.mem_ctrls_1.totalEnergy           345746043960                       # Total energy per rank (pJ)
system.mem_ctrls_1.averagePower            668.926399                       # Core power per rank (mW)
system.mem_ctrls_1.memoryStateTime::IDLE 493602459750                       # Time in different power states
system.mem_ctrls_1.memoryStateTime::REF   17132960000                       # Time in different power states
system.mem_ctrls_1.memoryStateTime::PRE_PDN            0                       # Time in different power states
system.mem_ctrls_1.memoryStateTime::ACT    2347296500                       # Time in different power states
system.mem_ctrls_1.memoryStateTime::ACT_PDN            0                       # Time in different power states
system.cpu_voltage_domain.voltage                   1                       # Voltage in Volts
system.cpu_clk_domain.clock                       500                       # Clock period in ticks
system.cpu0.apic_clk_domain.clock                8000                       # Clock period in ticks
system.cpu0.numCycles                      1031348695                       # number of cpu cycles simulated
system.cpu0.numWorkItemsStarted                     0                       # number of work items this cpu started
system.cpu0.numWorkItemsCompleted                   0                       # number of work items this cpu completed
system.cpu0.kern.inst.arm                           0                       # number of arm instructions executed
system.cpu0.kern.inst.quiesce                       0                       # number of quiesce instructions executed
system.cpu0.committedInsts                     440906                       # Number of instructions committed
system.cpu0.committedOps                       933298                       # Number of ops (including micro ops) committed
system.cpu0.num_int_alu_accesses               916360                       # Number of integer alu accesses
system.cpu0.num_fp_alu_accesses                   387                       # Number of float alu accesses
system.cpu0.num_func_calls                      27511                       # number of times a function call or return occured
system.cpu0.num_conditional_control_insts        61368                       # number of instructions that are conditional controls
system.cpu0.num_int_insts                      916360                       # number of integer instructions
system.cpu0.num_fp_insts                          387                       # number of float instructions
system.cpu0.num_int_register_reads            1854084                       # number of times the integer registers were read
system.cpu0.num_int_register_writes            749075                       # number of times the integer registers were written
system.cpu0.num_fp_register_reads                 622                       # number of times the floating registers were read
system.cpu0.num_fp_register_writes                354                       # number of times the floating registers were written
system.cpu0.num_cc_register_reads              494778                       # number of times the CC registers were read
system.cpu0.num_cc_register_writes             285074                       # number of times the CC registers were written
system.cpu0.num_mem_refs                       222682                       # number of memory refs
system.cpu0.num_load_insts                     136014                       # Number of load instructions
system.cpu0.num_store_insts                     86668                       # Number of store instructions
system.cpu0.num_idle_cycles              1028853641.838315                       # Number of idle cycles
system.cpu0.num_busy_cycles              2495053.161685                       # Number of busy cycles
system.cpu0.not_idle_fraction                0.002419                       # Percentage of non-idle cycles
system.cpu0.idle_fraction                    0.997581                       # Percentage of idle cycles
system.cpu0.Branches                            97196                       # Number of branches fetched
system.cpu0.op_class::No_OpClass                11268      1.21%      1.21% # Class of executed instruction
system.cpu0.op_class::IntAlu                   694260     74.39%     75.59% # Class of executed instruction
system.cpu0.op_class::IntMult                    1848      0.20%     75.79% # Class of executed instruction
system.cpu0.op_class::IntDiv                     3024      0.32%     76.12% # Class of executed instruction
system.cpu0.op_class::FloatAdd                    239      0.03%     76.14% # Class of executed instruction
system.cpu0.op_class::FloatCmp                      0      0.00%     76.14% # Class of executed instruction
system.cpu0.op_class::FloatCvt                      0      0.00%     76.14% # Class of executed instruction
system.cpu0.op_class::FloatMult                     0      0.00%     76.14% # Class of executed instruction
system.cpu0.op_class::FloatDiv                      0      0.00%     76.14% # Class of executed instruction
system.cpu0.op_class::FloatSqrt                     0      0.00%     76.14% # Class of executed instruction
system.cpu0.op_class::SimdAdd                       0      0.00%     76.14% # Class of executed instruction
system.cpu0.op_class::SimdAddAcc                    0      0.00%     76.14% # Class of executed instruction
system.cpu0.op_class::SimdAlu                       0      0.00%     76.14% # Class of executed instruction
system.cpu0.op_class::SimdCmp                       0      0.00%     76.14% # Class of executed instruction
system.cpu0.op_class::SimdCvt                       0      0.00%     76.14% # Class of executed instruction
system.cpu0.op_class::SimdMisc                      0      0.00%     76.14% # Class of executed instruction
system.cpu0.op_class::SimdMult                      0      0.00%     76.14% # Class of executed instruction
system.cpu0.op_class::SimdMultAcc                   0      0.00%     76.14% # Class of executed instruction
system.cpu0.op_class::SimdShift                     0      0.00%     76.14% # Class of executed instruction
system.cpu0.op_class::SimdShiftAcc                  0      0.00%     76.14% # Class of executed instruction
system.cpu0.op_class::SimdSqrt                      0      0.00%     76.14% # Class of executed instruction
system.cpu0.op_class::SimdFloatAdd                  0      0.00%     76.14% # Class of executed instruction
system.cpu0.op_class::SimdFloatAlu                  0      0.00%     76.14% # Class of executed instruction
system.cpu0.op_class::SimdFloatCmp                  0      0.00%     76.14% # Class of executed instruction
system.cpu0.op_class::SimdFloatCvt                  0      0.00%     76.14% # Class of executed instruction
system.cpu0.op_class::SimdFloatDiv                  0      0.00%     76.14% # Class of executed instruction
system.cpu0.op_class::SimdFloatMisc                 0      0.00%     76.14% # Class of executed instruction
system.cpu0.op_class::SimdFloatMult                 0      0.00%     76.14% # Class of executed instruction
system.cpu0.op_class::SimdFloatMultAcc              0      0.00%     76.14% # Class of executed instruction
system.cpu0.op_class::SimdFloatSqrt                 0      0.00%     76.14% # Class of executed instruction
system.cpu0.op_class::MemRead                  136014     14.57%     90.71% # Class of executed instruction
system.cpu0.op_class::MemWrite                  86668      9.29%    100.00% # Class of executed instruction
system.cpu0.op_class::IprAccess                     0      0.00%    100.00% # Class of executed instruction
system.cpu0.op_class::InstPrefetch                  0      0.00%    100.00% # Class of executed instruction
system.cpu0.op_class::total                    933321                       # Class of executed instruction
system.cpu1.apic_clk_domain.clock                8000                       # Clock period in ticks
system.cpu1.numCycles                      1028384267                       # number of cpu cycles simulated
system.cpu1.numWorkItemsStarted                     0                       # number of work items this cpu started
system.cpu1.numWorkItemsCompleted                   0                       # number of work items this cpu completed
system.cpu1.kern.inst.arm                           0                       # number of arm instructions executed
system.cpu1.kern.inst.quiesce                       0                       # number of quiesce instructions executed
system.cpu1.committedInsts                  265745119                       # Number of instructions committed
system.cpu1.committedOps                    479190000                       # Number of ops (including micro ops) committed
system.cpu1.num_int_alu_accesses            269561877                       # Number of integer alu accesses
system.cpu1.num_fp_alu_accesses             270602519                       # Number of float alu accesses
system.cpu1.num_func_calls                    9865246                       # number of times a function call or return occured
system.cpu1.num_conditional_control_insts     14998124                       # number of instructions that are conditional controls
system.cpu1.num_int_insts                   269561877                       # number of integer instructions
system.cpu1.num_fp_insts                    270602519                       # number of float instructions
system.cpu1.num_int_register_reads          512534053                       # number of times the integer registers were read
system.cpu1.num_int_register_writes         176063361                       # number of times the integer registers were written
system.cpu1.num_fp_register_reads           446698678                       # number of times the floating registers were read
system.cpu1.num_fp_register_writes          249457043                       # number of times the floating registers were written
system.cpu1.num_cc_register_reads           106900743                       # number of times the CC registers were read
system.cpu1.num_cc_register_writes           82967343                       # number of times the CC registers were written
system.cpu1.num_mem_refs                     84027521                       # number of memory refs
system.cpu1.num_load_insts                   62870150                       # Number of load instructions
system.cpu1.num_store_insts                  21157371                       # Number of store instructions
system.cpu1.num_idle_cycles              4120109.526120                       # Number of idle cycles
system.cpu1.num_busy_cycles              1024264157.473880                       # Number of busy cycles
system.cpu1.not_idle_fraction                0.995994                       # Percentage of non-idle cycles
system.cpu1.idle_fraction                    0.004006                       # Percentage of idle cycles
system.cpu1.Branches                         27046877                       # Number of branches fetched
system.cpu1.op_class::No_OpClass                10911      0.00%      0.00% # Class of executed instruction
system.cpu1.op_class::IntAlu                244779411     51.08%     51.08% # Class of executed instruction
system.cpu1.op_class::IntMult                    2554      0.00%     51.08% # Class of executed instruction
system.cpu1.op_class::IntDiv                     1779      0.00%     51.09% # Class of executed instruction
system.cpu1.op_class::FloatAdd              150367922     31.38%     82.46% # Class of executed instruction
system.cpu1.op_class::FloatCmp                      0      0.00%     82.46% # Class of executed instruction
system.cpu1.op_class::FloatCvt                      0      0.00%     82.46% # Class of executed instruction
system.cpu1.op_class::FloatMult                     0      0.00%     82.46% # Class of executed instruction
system.cpu1.op_class::FloatDiv                      0      0.00%     82.46% # Class of executed instruction
system.cpu1.op_class::FloatSqrt                     0      0.00%     82.46% # Class of executed instruction
system.cpu1.op_class::SimdAdd                       0      0.00%     82.46% # Class of executed instruction
system.cpu1.op_class::SimdAddAcc                    0      0.00%     82.46% # Class of executed instruction
system.cpu1.op_class::SimdAlu                       0      0.00%     82.46% # Class of executed instruction
system.cpu1.op_class::SimdCmp                       0      0.00%     82.46% # Class of executed instruction
system.cpu1.op_class::SimdCvt                       0      0.00%     82.46% # Class of executed instruction
system.cpu1.op_class::SimdMisc                      0      0.00%     82.46% # Class of executed instruction
system.cpu1.op_class::SimdMult                      0      0.00%     82.46% # Class of executed instruction
system.cpu1.op_class::SimdMultAcc                   0      0.00%     82.46% # Class of executed instruction
system.cpu1.op_class::SimdShift                     0      0.00%     82.46% # Class of executed instruction
system.cpu1.op_class::SimdShiftAcc                  0      0.00%     82.46% # Class of executed instruction
system.cpu1.op_class::SimdSqrt                      0      0.00%     82.46% # Class of executed instruction
system.cpu1.op_class::SimdFloatAdd                  0      0.00%     82.46% # Class of executed instruction
system.cpu1.op_class::SimdFloatAlu                  0      0.00%     82.46% # Class of executed instruction
system.cpu1.op_class::SimdFloatCmp                  0      0.00%     82.46% # Class of executed instruction
system.cpu1.op_class::SimdFloatCvt                  0      0.00%     82.46% # Class of executed instruction
system.cpu1.op_class::SimdFloatDiv                  0      0.00%     82.46% # Class of executed instruction
system.cpu1.op_class::SimdFloatMisc                 0      0.00%     82.46% # Class of executed instruction
system.cpu1.op_class::SimdFloatMult                 0      0.00%     82.46% # Class of executed instruction
system.cpu1.op_class::SimdFloatMultAcc              0      0.00%     82.46% # Class of executed instruction
system.cpu1.op_class::SimdFloatSqrt                 0      0.00%     82.46% # Class of executed instruction
system.cpu1.op_class::MemRead                62870150     13.12%     95.58% # Class of executed instruction
system.cpu1.op_class::MemWrite               21157371      4.42%    100.00% # Class of executed instruction
system.cpu1.op_class::IprAccess                     0      0.00%    100.00% # Class of executed instruction
system.cpu1.op_class::InstPrefetch                  0      0.00%    100.00% # Class of executed instruction
system.cpu1.op_class::total                 479190098                       # Class of executed instruction
system.cpu2.apic_clk_domain.clock                8000                       # Clock period in ticks
system.cpu2.numCycles                      1026789444                       # number of cpu cycles simulated
system.cpu2.numWorkItemsStarted                     0                       # number of work items this cpu started
system.cpu2.numWorkItemsCompleted                   0                       # number of work items this cpu completed
system.cpu2.kern.inst.arm                           0                       # number of arm instructions executed
system.cpu2.kern.inst.quiesce                       0                       # number of quiesce instructions executed
system.cpu2.committedInsts                     404121                       # Number of instructions committed
system.cpu2.committedOps                       857988                       # Number of ops (including micro ops) committed
system.cpu2.num_int_alu_accesses               841219                       # Number of integer alu accesses
system.cpu2.num_fp_alu_accesses                    33                       # Number of float alu accesses
system.cpu2.num_func_calls                      23697                       # number of times a function call or return occured
system.cpu2.num_conditional_control_insts        61716                       # number of instructions that are conditional controls
system.cpu2.num_int_insts                      841219                       # number of integer instructions
system.cpu2.num_fp_insts                           33                       # number of float instructions
system.cpu2.num_int_register_reads            1697935                       # number of times the integer registers were read
system.cpu2.num_int_register_writes            692454                       # number of times the integer registers were written
system.cpu2.num_fp_register_reads                  14                       # number of times the floating registers were read
system.cpu2.num_fp_register_writes                 25                       # number of times the floating registers were written
system.cpu2.num_cc_register_reads              479930                       # number of times the CC registers were read
system.cpu2.num_cc_register_writes             257452                       # number of times the CC registers were written
system.cpu2.num_mem_refs                       202370                       # number of memory refs
system.cpu2.num_load_insts                     125274                       # Number of load instructions
system.cpu2.num_store_insts                     77096                       # Number of store instructions
system.cpu2.num_idle_cycles              1024503012.454126                       # Number of idle cycles
system.cpu2.num_busy_cycles              2286431.545874                       # Number of busy cycles
system.cpu2.not_idle_fraction                0.002227                       # Percentage of non-idle cycles
system.cpu2.idle_fraction                    0.997773                       # Percentage of idle cycles
system.cpu2.Branches                            92983                       # Number of branches fetched
system.cpu2.op_class::No_OpClass                13153      1.53%      1.53% # Class of executed instruction
system.cpu2.op_class::IntAlu                   636205     74.15%     75.68% # Class of executed instruction
system.cpu2.op_class::IntMult                    1730      0.20%     75.89% # Class of executed instruction
system.cpu2.op_class::IntDiv                     4517      0.53%     76.41% # Class of executed instruction
system.cpu2.op_class::FloatAdd                     17      0.00%     76.41% # Class of executed instruction
system.cpu2.op_class::FloatCmp                      0      0.00%     76.41% # Class of executed instruction
system.cpu2.op_class::FloatCvt                      0      0.00%     76.41% # Class of executed instruction
system.cpu2.op_class::FloatMult                     0      0.00%     76.41% # Class of executed instruction
system.cpu2.op_class::FloatDiv                      0      0.00%     76.41% # Class of executed instruction
system.cpu2.op_class::FloatSqrt                     0      0.00%     76.41% # Class of executed instruction
system.cpu2.op_class::SimdAdd                       0      0.00%     76.41% # Class of executed instruction
system.cpu2.op_class::SimdAddAcc                    0      0.00%     76.41% # Class of executed instruction
system.cpu2.op_class::SimdAlu                       0      0.00%     76.41% # Class of executed instruction
system.cpu2.op_class::SimdCmp                       0      0.00%     76.41% # Class of executed instruction
system.cpu2.op_class::SimdCvt                       0      0.00%     76.41% # Class of executed instruction
system.cpu2.op_class::SimdMisc                      0      0.00%     76.41% # Class of executed instruction
system.cpu2.op_class::SimdMult                      0      0.00%     76.41% # Class of executed instruction
system.cpu2.op_class::SimdMultAcc                   0      0.00%     76.41% # Class of executed instruction
system.cpu2.op_class::SimdShift                     0      0.00%     76.41% # Class of executed instruction
system.cpu2.op_class::SimdShiftAcc                  0      0.00%     76.41% # Class of executed instruction
system.cpu2.op_class::SimdSqrt                      0      0.00%     76.41% # Class of executed instruction
system.cpu2.op_class::SimdFloatAdd                  0      0.00%     76.41% # Class of executed instruction
system.cpu2.op_class::SimdFloatAlu                  0      0.00%     76.41% # Class of executed instruction
system.cpu2.op_class::SimdFloatCmp                  0      0.00%     76.41% # Class of executed instruction
system.cpu2.op_class::SimdFloatCvt                  0      0.00%     76.41% # Class of executed instruction
system.cpu2.op_class::SimdFloatDiv                  0      0.00%     76.41% # Class of executed instruction
system.cpu2.op_class::SimdFloatMisc                 0      0.00%     76.41% # Class of executed instruction
system.cpu2.op_class::SimdFloatMult                 0      0.00%     76.41% # Class of executed instruction
system.cpu2.op_class::SimdFloatMultAcc              0      0.00%     76.41% # Class of executed instruction
system.cpu2.op_class::SimdFloatSqrt                 0      0.00%     76.41% # Class of executed instruction
system.cpu2.op_class::MemRead                  125274     14.60%     91.01% # Class of executed instruction
system.cpu2.op_class::MemWrite                  77096      8.99%    100.00% # Class of executed instruction
system.cpu2.op_class::IprAccess                     0      0.00%    100.00% # Class of executed instruction
system.cpu2.op_class::InstPrefetch                  0      0.00%    100.00% # Class of executed instruction
system.cpu2.op_class::total                    857992                       # Class of executed instruction
system.cpu3.apic_clk_domain.clock                8000                       # Clock period in ticks
system.cpu3.numCycles                      1024030742                       # number of cpu cycles simulated
system.cpu3.numWorkItemsStarted                     0                       # number of work items this cpu started
system.cpu3.numWorkItemsCompleted                   0                       # number of work items this cpu completed
system.cpu3.kern.inst.arm                           0                       # number of arm instructions executed
system.cpu3.kern.inst.quiesce                       0                       # number of quiesce instructions executed
system.cpu3.committedInsts                    1039275                       # Number of instructions committed
system.cpu3.committedOps                      2020686                       # Number of ops (including micro ops) committed
system.cpu3.num_int_alu_accesses              1989259                       # Number of integer alu accesses
system.cpu3.num_fp_alu_accesses                  1778                       # Number of float alu accesses
system.cpu3.num_func_calls                      42978                       # number of times a function call or return occured
system.cpu3.num_conditional_control_insts       162990                       # number of instructions that are conditional controls
system.cpu3.num_int_insts                     1989259                       # number of integer instructions
system.cpu3.num_fp_insts                         1778                       # number of float instructions
system.cpu3.num_int_register_reads            4047795                       # number of times the integer registers were read
system.cpu3.num_int_register_writes           1621536                       # number of times the integer registers were written
system.cpu3.num_fp_register_reads                2988                       # number of times the floating registers were read
system.cpu3.num_fp_register_writes               1416                       # number of times the floating registers were written
system.cpu3.num_cc_register_reads             1157605                       # number of times the CC registers were read
system.cpu3.num_cc_register_writes             671410                       # number of times the CC registers were written
system.cpu3.num_mem_refs                       463339                       # number of memory refs
system.cpu3.num_load_insts                     285565                       # Number of load instructions
system.cpu3.num_store_insts                    177774                       # Number of store instructions
system.cpu3.num_idle_cycles              1018888784.777168                       # Number of idle cycles
system.cpu3.num_busy_cycles              5141957.222832                       # Number of busy cycles
system.cpu3.not_idle_fraction                0.005021                       # Percentage of non-idle cycles
system.cpu3.idle_fraction                    0.994979                       # Percentage of idle cycles
system.cpu3.Branches                           222234                       # Number of branches fetched
system.cpu3.op_class::No_OpClass                21343      1.06%      1.06% # Class of executed instruction
system.cpu3.op_class::IntAlu                  1525851     75.51%     76.56% # Class of executed instruction
system.cpu3.op_class::IntMult                    2509      0.12%     76.69% # Class of executed instruction
system.cpu3.op_class::IntDiv                     6390      0.32%     77.00% # Class of executed instruction
system.cpu3.op_class::FloatAdd                   1344      0.07%     77.07% # Class of executed instruction
system.cpu3.op_class::FloatCmp                      0      0.00%     77.07% # Class of executed instruction
system.cpu3.op_class::FloatCvt                      0      0.00%     77.07% # Class of executed instruction
system.cpu3.op_class::FloatMult                     0      0.00%     77.07% # Class of executed instruction
system.cpu3.op_class::FloatDiv                      0      0.00%     77.07% # Class of executed instruction
system.cpu3.op_class::FloatSqrt                     0      0.00%     77.07% # Class of executed instruction
system.cpu3.op_class::SimdAdd                       0      0.00%     77.07% # Class of executed instruction
system.cpu3.op_class::SimdAddAcc                    0      0.00%     77.07% # Class of executed instruction
system.cpu3.op_class::SimdAlu                       0      0.00%     77.07% # Class of executed instruction
system.cpu3.op_class::SimdCmp                       0      0.00%     77.07% # Class of executed instruction
system.cpu3.op_class::SimdCvt                       0      0.00%     77.07% # Class of executed instruction
system.cpu3.op_class::SimdMisc                      0      0.00%     77.07% # Class of executed instruction
system.cpu3.op_class::SimdMult                      0      0.00%     77.07% # Class of executed instruction
system.cpu3.op_class::SimdMultAcc                   0      0.00%     77.07% # Class of executed instruction
system.cpu3.op_class::SimdShift                     0      0.00%     77.07% # Class of executed instruction
system.cpu3.op_class::SimdShiftAcc                  0      0.00%     77.07% # Class of executed instruction
system.cpu3.op_class::SimdSqrt                      0      0.00%     77.07% # Class of executed instruction
system.cpu3.op_class::SimdFloatAdd                  0      0.00%     77.07% # Class of executed instruction
system.cpu3.op_class::SimdFloatAlu                  0      0.00%     77.07% # Class of executed instruction
system.cpu3.op_class::SimdFloatCmp                  0      0.00%     77.07% # Class of executed instruction
system.cpu3.op_class::SimdFloatCvt                  0      0.00%     77.07% # Class of executed instruction
system.cpu3.op_class::SimdFloatDiv                  0      0.00%     77.07% # Class of executed instruction
system.cpu3.op_class::SimdFloatMisc                 0      0.00%     77.07% # Class of executed instruction
system.cpu3.op_class::SimdFloatMult                 0      0.00%     77.07% # Class of executed instruction
system.cpu3.op_class::SimdFloatMultAcc              0      0.00%     77.07% # Class of executed instruction
system.cpu3.op_class::SimdFloatSqrt                 0      0.00%     77.07% # Class of executed instruction
system.cpu3.op_class::MemRead                  285565     14.13%     91.20% # Class of executed instruction
system.cpu3.op_class::MemWrite                 177774      8.80%    100.00% # Class of executed instruction
system.cpu3.op_class::IprAccess                     0      0.00%    100.00% # Class of executed instruction
system.cpu3.op_class::InstPrefetch                  0      0.00%    100.00% # Class of executed instruction
system.cpu3.op_class::total                   2020776                       # Class of executed instruction
system.iobus.trans_dist::ReadReq                  101                       # Transaction distribution
system.iobus.trans_dist::ReadResp                 101                       # Transaction distribution
system.iobus.trans_dist::WriteReq                 618                       # Transaction distribution
system.iobus.trans_dist::WriteResp                618                       # Transaction distribution
system.iobus.trans_dist::MessageReq                18                       # Transaction distribution
system.iobus.trans_dist::MessageResp               18                       # Transaction distribution
system.iobus.pkt_count_system.pc.south_bridge.io_apic.int_master::system.ruby.l0_cntrl0.sequencer.pio-slave-port            4                       # Packet count per connected master and slave (bytes)
system.iobus.pkt_count_system.pc.south_bridge.io_apic.int_master::system.ruby.l0_cntrl1.sequencer.pio-slave-port            4                       # Packet count per connected master and slave (bytes)
system.iobus.pkt_count_system.pc.south_bridge.io_apic.int_master::system.ruby.l0_cntrl2.sequencer.pio-slave-port            4                       # Packet count per connected master and slave (bytes)
system.iobus.pkt_count_system.pc.south_bridge.io_apic.int_master::system.ruby.l0_cntrl3.sequencer.pio-slave-port            2                       # Packet count per connected master and slave (bytes)
system.iobus.pkt_count_system.pc.south_bridge.io_apic.int_master::total           14                       # Packet count per connected master and slave (bytes)
system.iobus.pkt_count_system.ruby.l0_cntrl0.sequencer.mem-master-port::system.pc.south_bridge.ide.pio           46                       # Packet count per connected master and slave (bytes)
system.iobus.pkt_count_system.ruby.l0_cntrl0.sequencer.mem-master-port::system.pc.south_bridge.io_apic.pio            8                       # Packet count per connected master and slave (bytes)
system.iobus.pkt_count_system.ruby.l0_cntrl0.sequencer.mem-master-port::system.ruby.l0_cntrl0.sequencer.pio-slave-port          274                       # Packet count per connected master and slave (bytes)
system.iobus.pkt_count_system.ruby.l0_cntrl0.sequencer.mem-master-port::system.ruby.l0_cntrl1.sequencer.pio-slave-port            2                       # Packet count per connected master and slave (bytes)
system.iobus.pkt_count_system.ruby.l0_cntrl0.sequencer.mem-master-port::total          330                       # Packet count per connected master and slave (bytes)
system.iobus.pkt_count_system.ruby.l0_cntrl1.sequencer.mem-master-port::system.pc.south_bridge.ide.pio           12                       # Packet count per connected master and slave (bytes)
system.iobus.pkt_count_system.ruby.l0_cntrl1.sequencer.mem-master-port::system.pc.south_bridge.io_apic.pio            6                       # Packet count per connected master and slave (bytes)
system.iobus.pkt_count_system.ruby.l0_cntrl1.sequencer.mem-master-port::system.pc.com_1.pio           22                       # Packet count per connected master and slave (bytes)
system.iobus.pkt_count_system.ruby.l0_cntrl1.sequencer.mem-master-port::system.ruby.l0_cntrl0.sequencer.pio-slave-port            4                       # Packet count per connected master and slave (bytes)
system.iobus.pkt_count_system.ruby.l0_cntrl1.sequencer.mem-master-port::system.ruby.l0_cntrl1.sequencer.pio-slave-port          296                       # Packet count per connected master and slave (bytes)
system.iobus.pkt_count_system.ruby.l0_cntrl1.sequencer.mem-master-port::system.ruby.l0_cntrl2.sequencer.pio-slave-port            8                       # Packet count per connected master and slave (bytes)
system.iobus.pkt_count_system.ruby.l0_cntrl1.sequencer.mem-master-port::total          348                       # Packet count per connected master and slave (bytes)
system.iobus.pkt_count_system.ruby.l0_cntrl2.sequencer.mem-master-port::system.pc.south_bridge.ide.pio           34                       # Packet count per connected master and slave (bytes)
system.iobus.pkt_count_system.ruby.l0_cntrl2.sequencer.mem-master-port::system.pc.south_bridge.io_apic.pio           14                       # Packet count per connected master and slave (bytes)
system.iobus.pkt_count_system.ruby.l0_cntrl2.sequencer.mem-master-port::system.pc.com_1.pio          162                       # Packet count per connected master and slave (bytes)
system.iobus.pkt_count_system.ruby.l0_cntrl2.sequencer.mem-master-port::system.ruby.l0_cntrl2.sequencer.pio-slave-port          278                       # Packet count per connected master and slave (bytes)
system.iobus.pkt_count_system.ruby.l0_cntrl2.sequencer.mem-master-port::system.ruby.l0_cntrl3.sequencer.pio-slave-port            2                       # Packet count per connected master and slave (bytes)
system.iobus.pkt_count_system.ruby.l0_cntrl2.sequencer.mem-master-port::total          490                       # Packet count per connected master and slave (bytes)
system.iobus.pkt_count_system.ruby.l0_cntrl3.sequencer.mem-master-port::system.pc.south_bridge.io_apic.pio            8                       # Packet count per connected master and slave (bytes)
system.iobus.pkt_count_system.ruby.l0_cntrl3.sequencer.mem-master-port::system.ruby.l0_cntrl0.sequencer.pio-slave-port            2                       # Packet count per connected master and slave (bytes)
system.iobus.pkt_count_system.ruby.l0_cntrl3.sequencer.mem-master-port::system.ruby.l0_cntrl1.sequencer.pio-slave-port            2                       # Packet count per connected master and slave (bytes)
system.iobus.pkt_count_system.ruby.l0_cntrl3.sequencer.mem-master-port::system.ruby.l0_cntrl2.sequencer.pio-slave-port            2                       # Packet count per connected master and slave (bytes)
system.iobus.pkt_count_system.ruby.l0_cntrl3.sequencer.mem-master-port::system.ruby.l0_cntrl3.sequencer.pio-slave-port          278                       # Packet count per connected master and slave (bytes)
system.iobus.pkt_count_system.ruby.l0_cntrl3.sequencer.mem-master-port::total          292                       # Packet count per connected master and slave (bytes)
system.iobus.pkt_count::total                    1474                       # Packet count per connected master and slave (bytes)
system.iobus.pkt_size_system.pc.south_bridge.io_apic.int_master::system.ruby.l0_cntrl0.sequencer.pio-slave-port            8                       # Cumulative packet size per connected master and slave (bytes)
system.iobus.pkt_size_system.pc.south_bridge.io_apic.int_master::system.ruby.l0_cntrl1.sequencer.pio-slave-port            8                       # Cumulative packet size per connected master and slave (bytes)
system.iobus.pkt_size_system.pc.south_bridge.io_apic.int_master::system.ruby.l0_cntrl2.sequencer.pio-slave-port            8                       # Cumulative packet size per connected master and slave (bytes)
system.iobus.pkt_size_system.pc.south_bridge.io_apic.int_master::system.ruby.l0_cntrl3.sequencer.pio-slave-port            4                       # Cumulative packet size per connected master and slave (bytes)
system.iobus.pkt_size_system.pc.south_bridge.io_apic.int_master::total           28                       # Cumulative packet size per connected master and slave (bytes)
system.iobus.pkt_size_system.ruby.l0_cntrl0.sequencer.mem-master-port::system.pc.south_bridge.ide.pio           26                       # Cumulative packet size per connected master and slave (bytes)
system.iobus.pkt_size_system.ruby.l0_cntrl0.sequencer.mem-master-port::system.pc.south_bridge.io_apic.pio           16                       # Cumulative packet size per connected master and slave (bytes)
system.iobus.pkt_size_system.ruby.l0_cntrl0.sequencer.mem-master-port::system.ruby.l0_cntrl0.sequencer.pio-slave-port          548                       # Cumulative packet size per connected master and slave (bytes)
system.iobus.pkt_size_system.ruby.l0_cntrl0.sequencer.mem-master-port::system.ruby.l0_cntrl1.sequencer.pio-slave-port            4                       # Cumulative packet size per connected master and slave (bytes)
system.iobus.pkt_size_system.ruby.l0_cntrl0.sequencer.mem-master-port::total          594                       # Cumulative packet size per connected master and slave (bytes)
system.iobus.pkt_size_system.ruby.l0_cntrl1.sequencer.mem-master-port::system.pc.south_bridge.ide.pio            6                       # Cumulative packet size per connected master and slave (bytes)
system.iobus.pkt_size_system.ruby.l0_cntrl1.sequencer.mem-master-port::system.pc.south_bridge.io_apic.pio           12                       # Cumulative packet size per connected master and slave (bytes)
system.iobus.pkt_size_system.ruby.l0_cntrl1.sequencer.mem-master-port::system.pc.com_1.pio           11                       # Cumulative packet size per connected master and slave (bytes)
system.iobus.pkt_size_system.ruby.l0_cntrl1.sequencer.mem-master-port::system.ruby.l0_cntrl0.sequencer.pio-slave-port            8                       # Cumulative packet size per connected master and slave (bytes)
system.iobus.pkt_size_system.ruby.l0_cntrl1.sequencer.mem-master-port::system.ruby.l0_cntrl1.sequencer.pio-slave-port          592                       # Cumulative packet size per connected master and slave (bytes)
system.iobus.pkt_size_system.ruby.l0_cntrl1.sequencer.mem-master-port::system.ruby.l0_cntrl2.sequencer.pio-slave-port           16                       # Cumulative packet size per connected master and slave (bytes)
system.iobus.pkt_size_system.ruby.l0_cntrl1.sequencer.mem-master-port::total          645                       # Cumulative packet size per connected master and slave (bytes)
system.iobus.pkt_size_system.ruby.l0_cntrl2.sequencer.mem-master-port::system.pc.south_bridge.ide.pio           20                       # Cumulative packet size per connected master and slave (bytes)
system.iobus.pkt_size_system.ruby.l0_cntrl2.sequencer.mem-master-port::system.pc.south_bridge.io_apic.pio           28                       # Cumulative packet size per connected master and slave (bytes)
system.iobus.pkt_size_system.ruby.l0_cntrl2.sequencer.mem-master-port::system.pc.com_1.pio           81                       # Cumulative packet size per connected master and slave (bytes)
system.iobus.pkt_size_system.ruby.l0_cntrl2.sequencer.mem-master-port::system.ruby.l0_cntrl2.sequencer.pio-slave-port          556                       # Cumulative packet size per connected master and slave (bytes)
system.iobus.pkt_size_system.ruby.l0_cntrl2.sequencer.mem-master-port::system.ruby.l0_cntrl3.sequencer.pio-slave-port            4                       # Cumulative packet size per connected master and slave (bytes)
system.iobus.pkt_size_system.ruby.l0_cntrl2.sequencer.mem-master-port::total          689                       # Cumulative packet size per connected master and slave (bytes)
system.iobus.pkt_size_system.ruby.l0_cntrl3.sequencer.mem-master-port::system.pc.south_bridge.io_apic.pio           16                       # Cumulative packet size per connected master and slave (bytes)
system.iobus.pkt_size_system.ruby.l0_cntrl3.sequencer.mem-master-port::system.ruby.l0_cntrl0.sequencer.pio-slave-port            4                       # Cumulative packet size per connected master and slave (bytes)
system.iobus.pkt_size_system.ruby.l0_cntrl3.sequencer.mem-master-port::system.ruby.l0_cntrl1.sequencer.pio-slave-port            4                       # Cumulative packet size per connected master and slave (bytes)
system.iobus.pkt_size_system.ruby.l0_cntrl3.sequencer.mem-master-port::system.ruby.l0_cntrl2.sequencer.pio-slave-port            4                       # Cumulative packet size per connected master and slave (bytes)
system.iobus.pkt_size_system.ruby.l0_cntrl3.sequencer.mem-master-port::system.ruby.l0_cntrl3.sequencer.pio-slave-port          556                       # Cumulative packet size per connected master and slave (bytes)
system.iobus.pkt_size_system.ruby.l0_cntrl3.sequencer.mem-master-port::total          584                       # Cumulative packet size per connected master and slave (bytes)
system.iobus.pkt_size::total                     2540                       # Cumulative packet size per connected master and slave (bytes)
system.iobus.reqLayer2.occupancy                81000                       # Layer occupancy (ticks)
system.iobus.reqLayer2.utilization                0.0                       # Layer utilization (%)
system.iobus.reqLayer8.occupancy                31996                       # Layer occupancy (ticks)
system.iobus.reqLayer8.utilization                0.0                       # Layer utilization (%)
system.iobus.reqLayer12.occupancy              120500                       # Layer occupancy (ticks)
system.iobus.reqLayer12.utilization               0.0                       # Layer utilization (%)
system.iobus.reqLayer17.occupancy              347999                       # Layer occupancy (ticks)
system.iobus.reqLayer17.utilization               0.0                       # Layer utilization (%)
system.iobus.reqLayer18.occupancy              339995                       # Layer occupancy (ticks)
system.iobus.reqLayer18.utilization               0.0                       # Layer utilization (%)
system.iobus.reqLayer19.occupancy              358998                       # Layer occupancy (ticks)
system.iobus.reqLayer19.utilization               0.0                       # Layer utilization (%)
system.iobus.reqLayer20.occupancy              346498                       # Layer occupancy (ticks)
system.iobus.reqLayer20.utilization               0.0                       # Layer utilization (%)
system.iobus.respLayer0.occupancy               10998                       # Layer occupancy (ticks)
system.iobus.respLayer0.utilization               0.0                       # Layer utilization (%)
system.iobus.respLayer2.occupancy              244500                       # Layer occupancy (ticks)
system.iobus.respLayer2.utilization               0.0                       # Layer utilization (%)
system.iobus.respLayer4.occupancy              266000                       # Layer occupancy (ticks)
system.iobus.respLayer4.utilization               0.0                       # Layer utilization (%)
system.iobus.respLayer6.occupancy              381500                       # Layer occupancy (ticks)
system.iobus.respLayer6.utilization               0.0                       # Layer utilization (%)
system.iobus.respLayer8.occupancy              220500                       # Layer occupancy (ticks)
system.iobus.respLayer8.utilization               0.0                       # Layer utilization (%)
system.pc.south_bridge.ide.disks.dma_read_full_pages            0                       # Number of full page size DMA reads (not PRD).
system.pc.south_bridge.ide.disks.dma_read_bytes            0                       # Number of bytes transfered via DMA reads (not PRD).
system.pc.south_bridge.ide.disks.dma_read_txs            0                       # Number of DMA read transactions (not PRD).
system.pc.south_bridge.ide.disks.dma_write_full_pages           33                       # Number of full page size DMA writes.
system.pc.south_bridge.ide.disks.dma_write_bytes       135168                       # Number of bytes transfered via DMA writes.
system.pc.south_bridge.ide.disks.dma_write_txs           33                       # Number of DMA write transactions.
system.ruby.clk_domain.clock                      500                       # Clock period in ticks
system.ruby.delayHist::bucket_size                  4                       # delay histogram for all message
system.ruby.delayHist::max_bucket                  39                       # delay histogram for all message
system.ruby.delayHist::samples               27432729                       # delay histogram for all message
system.ruby.delayHist::mean                  0.020505                       # delay histogram for all message
system.ruby.delayHist::stdev                 0.405286                       # delay histogram for all message
system.ruby.delayHist                    |    27362630     99.74%     99.74% |         983      0.00%     99.75% |       68905      0.25%    100.00% |          61      0.00%    100.00% |         134      0.00%    100.00% |           2      0.00%    100.00% |          14      0.00%    100.00% |           0      0.00%    100.00% |           0      0.00%    100.00% |           0      0.00%    100.00% # delay histogram for all message
system.ruby.delayHist::total                 27432729                       # delay histogram for all message
system.ruby.outstanding_req_hist_seqr::bucket_size            1                      
system.ruby.outstanding_req_hist_seqr::max_bucket            9                      
system.ruby.outstanding_req_hist_seqr::samples    462234044                      
system.ruby.outstanding_req_hist_seqr::mean     1.000000                      
system.ruby.outstanding_req_hist_seqr::gmean     1.000000                      
system.ruby.outstanding_req_hist_seqr::stdev     0.000646                      
system.ruby.outstanding_req_hist_seqr    |           0      0.00%      0.00% |   462233851    100.00%    100.00% |         193      0.00%    100.00% |           0      0.00%    100.00% |           0      0.00%    100.00% |           0      0.00%    100.00% |           0      0.00%    100.00% |           0      0.00%    100.00% |           0      0.00%    100.00% |           0      0.00%    100.00%
system.ruby.outstanding_req_hist_seqr::total    462234044                      
system.ruby.latency_hist_seqr::bucket_size          128                      
system.ruby.latency_hist_seqr::max_bucket         1279                      
system.ruby.latency_hist_seqr::samples      462234044                      
system.ruby.latency_hist_seqr::mean          1.232239                      
system.ruby.latency_hist_seqr::gmean         1.082998                      
system.ruby.latency_hist_seqr::stdev         1.446519                      
system.ruby.latency_hist_seqr            |   462231038    100.00%    100.00% |        2862      0.00%    100.00% |          27      0.00%    100.00% |          35      0.00%    100.00% |          59      0.00%    100.00% |          22      0.00%    100.00% |           0      0.00%    100.00% |           1      0.00%    100.00% |           0      0.00%    100.00% |           0      0.00%    100.00%
system.ruby.latency_hist_seqr::total        462234044                      
system.ruby.hit_latency_hist_seqr::bucket_size            1                      
[...]
system.ruby.L1Cache_Controller.Ack_all::total         4035                      
system.ruby.L1Cache_Controller.WB_Ack    |       45361      3.32%      3.32% |      987939     72.28%     75.60% |       76856      5.62%     81.22% |      256678     18.78%    100.00%
system.ruby.L1Cache_Controller.WB_Ack::total      1366834                      
system.ruby.L1Cache_Controller.I.Load    |       62305      4.41%      4.41% |      992916     70.24%     74.65% |       97618      6.91%     81.55% |      260746     18.45%    100.00%
system.ruby.L1Cache_Controller.I.Load::total      1413585                      
system.ruby.L1Cache_Controller.I.Store   |       12941     11.27%     11.27% |       46917     40.85%     52.12% |       16742     14.58%     66.69% |       38252     33.31%    100.00%
system.ruby.L1Cache_Controller.I.Store::total       114852                      
system.ruby.L1Cache_Controller.I.Inv     |         973     20.12%     20.12% |        1289     26.66%     46.78% |        1144     23.66%     70.44% |        1429     29.56%    100.00%
system.ruby.L1Cache_Controller.I.Inv::total         4835                      
system.ruby.L1Cache_Controller.S.Load    |       44566     19.55%     19.55% |       59625     26.15%     45.70% |       62154     27.26%     72.96% |       61646     27.04%    100.00%
system.ruby.L1Cache_Controller.S.Load::total       227991                      
system.ruby.L1Cache_Controller.S.Store   |        1034     38.14%     38.14% |         627     23.13%     61.27% |         480     17.71%     78.97% |         570     21.03%    100.00%
system.ruby.L1Cache_Controller.S.Store::total         2711                      
system.ruby.L1Cache_Controller.S.L0_Invalidate_Own |       28386     18.45%     18.45% |       50626     32.90%     51.34% |       35341     22.96%     74.31% |       39540     25.69%    100.00%
system.ruby.L1Cache_Controller.S.L0_Invalidate_Own::total       153893                      
system.ruby.L1Cache_Controller.S.L0_Invalidate_Else |         221      9.97%      9.97% |         258     11.64%     21.62% |         927     41.83%     63.45% |         810     36.55%    100.00%
system.ruby.L1Cache_Controller.S.L0_Invalidate_Else::total         2216                      
system.ruby.L1Cache_Controller.SS.Load   |         366     38.01%     38.01% |         125     12.98%     50.99% |         203     21.08%     72.07% |         269     27.93%    100.00%
system.ruby.L1Cache_Controller.SS.Load::total          963                      
system.ruby.L1Cache_Controller.SS.Store  |         193     73.95%     73.95% |          18      6.90%     80.84% |          19      7.28%     88.12% |          31     11.88%    100.00%
system.ruby.L1Cache_Controller.SS.Store::total          261                      
system.ruby.L1Cache_Controller.SS.Inv    |         512     12.79%     12.79% |         527     13.17%     25.96% |        1397     34.91%     60.87% |        1566     39.13%    100.00%
system.ruby.L1Cache_Controller.SS.Inv::total         4002                      
system.ruby.L1Cache_Controller.SS.L1_Replacement |       29088     18.60%     18.60% |       51147     32.70%     51.30% |       35838     22.91%     74.21% |       40344     25.79%    100.00%
system.ruby.L1Cache_Controller.SS.L1_Replacement::total       156417                      
system.ruby.L1Cache_Controller.E.WriteBack |       31835      2.94%      2.94% |      795903     73.55%     76.49% |       58718      5.43%     81.91% |      195740     18.09%    100.00%
system.ruby.L1Cache_Controller.E.WriteBack::total      1082196                      
system.ruby.L1Cache_Controller.E.L0_Invalidate_Own |        1211      0.70%      0.70% |      145444     84.10%     84.80% |        2247      1.30%     86.10% |       24044     13.90%    100.00%
system.ruby.L1Cache_Controller.E.L0_Invalidate_Own::total       172946                      
system.ruby.L1Cache_Controller.E.L0_Invalidate_Else |          63     16.07%     16.07% |          87     22.19%     38.27% |         102     26.02%     64.29% |         140     35.71%    100.00%
system.ruby.L1Cache_Controller.E.L0_Invalidate_Else::total          392                      
system.ruby.L1Cache_Controller.EE.Inv    |           0      0.00%      0.00% |           0      0.00%      0.00% |           1     33.33%     33.33% |           2     66.67%    100.00%
system.ruby.L1Cache_Controller.EE.Inv::total            3                      
system.ruby.L1Cache_Controller.EE.L1_Replacement |        1056      0.62%      0.62% |      145250     85.77%     86.40% |        1951      1.15%     87.55% |       21088     12.45%    100.00%
system.ruby.L1Cache_Controller.EE.L1_Replacement::total       169345                      
system.ruby.L1Cache_Controller.EE.Fwd_GETX |           5     17.24%     17.24% |           3     10.34%     27.59% |          12     41.38%     68.97% |           9     31.03%    100.00%
system.ruby.L1Cache_Controller.EE.Fwd_GETX::total           29                      
system.ruby.L1Cache_Controller.EE.Fwd_GETS |          46     17.36%     17.36% |          57     21.51%     38.87% |          66     24.91%     63.77% |          96     36.23%    100.00%
system.ruby.L1Cache_Controller.EE.Fwd_GETS::total          265                      
system.ruby.L1Cache_Controller.M.WriteBack |       57883      0.27%      0.27% |    20609956     95.94%     96.21% |       98154      0.46%     96.66% |      716903      3.34%    100.00%
system.ruby.L1Cache_Controller.M.WriteBack::total     21482896                      
system.ruby.L1Cache_Controller.M.L0_Invalidate_Own |        2551      3.69%      3.69% |       44131     63.82%     67.50% |        3382      4.89%     72.39% |       19090     27.61%    100.00%
system.ruby.L1Cache_Controller.M.L0_Invalidate_Own::total        69154                      
system.ruby.L1Cache_Controller.M.L0_Invalidate_Else |         591     37.88%     37.88% |         259     16.60%     54.49% |         299     19.17%     73.65% |         411     26.35%    100.00%
system.ruby.L1Cache_Controller.M.L0_Invalidate_Else::total         1560                      
system.ruby.L1Cache_Controller.MM.Load   |       36060      0.17%      0.17% |    20297716     96.51%     96.69% |       65940      0.31%     97.00% |      631019      3.00%    100.00%
system.ruby.L1Cache_Controller.MM.Load::total     21030735                      
system.ruby.L1Cache_Controller.MM.Store  |       10812      2.67%      2.67% |      309063     76.30%     78.97% |       18646      4.60%     83.58% |       66519     16.42%    100.00%
system.ruby.L1Cache_Controller.MM.Store::total       405040                      
system.ruby.L1Cache_Controller.MM.Inv    |          50     28.57%     28.57% |          41     23.43%     52.00% |          52     29.71%     81.71% |          32     18.29%    100.00%
system.ruby.L1Cache_Controller.MM.Inv::total          175                      
system.ruby.L1Cache_Controller.MM.L1_Replacement |       44305      3.70%      3.70% |      842689     70.37%     74.07% |       74905      6.26%     80.33% |      235590     19.67%    100.00%
system.ruby.L1Cache_Controller.MM.L1_Replacement::total      1197489                      
system.ruby.L1Cache_Controller.MM.Fwd_GETX |         209     21.44%     21.44% |         180     18.46%     39.90% |         182     18.67%     58.56% |         404     41.44%    100.00%
system.ruby.L1Cache_Controller.MM.Fwd_GETX::total          975                      
system.ruby.L1Cache_Controller.MM.Fwd_GETS |        1396     27.11%     27.11% |         869     16.87%     43.98% |        1096     21.28%     65.26% |        1789     34.74%    100.00%
system.ruby.L1Cache_Controller.MM.Fwd_GETS::total         5150                      
system.ruby.L1Cache_Controller.IS.Data_Exclusive |       33129      2.64%      2.64% |      941430     74.98%     77.62% |       61077      4.86%     82.49% |      219877     17.51%    100.00%
system.ruby.L1Cache_Controller.IS.Data_Exclusive::total      1255513                      
system.ruby.L1Cache_Controller.IS.DataS_fromL1 |        1273     23.50%     23.50% |         987     18.22%     41.72% |        1194     22.04%     63.76% |        1963     36.24%    100.00%
system.ruby.L1Cache_Controller.IS.DataS_fromL1::total         5417                      
system.ruby.L1Cache_Controller.IS.Data_all_Acks |       27903     18.28%     18.28% |       50499     33.08%     51.36% |       35347     23.15%     74.51% |       38906     25.49%    100.00%
system.ruby.L1Cache_Controller.IS.Data_all_Acks::total       152655                      
system.ruby.L1Cache_Controller.IM.Data   |         399     37.50%     37.50% |         256     24.06%     61.56% |          70      6.58%     68.14% |         339     31.86%    100.00%
system.ruby.L1Cache_Controller.IM.Data::total         1064                      
system.ruby.L1Cache_Controller.IM.Data_all_Acks |       12542     11.02%     11.02% |       46661     41.01%     52.03% |       16672     14.65%     66.68% |       37914     33.32%    100.00%
system.ruby.L1Cache_Controller.IM.Data_all_Acks::total       113789                      
system.ruby.L1Cache_Controller.SM.Inv    |           0      0.00%      0.00% |           0      0.00%      0.00% |           0      0.00%      0.00% |           1    100.00%    100.00%
system.ruby.L1Cache_Controller.SM.Inv::total            1                      
system.ruby.L1Cache_Controller.SM.Ack    |        2901     51.67%     51.67% |        1164     20.73%     72.40% |         675     12.02%     84.42% |         875     15.58%    100.00%
system.ruby.L1Cache_Controller.SM.Ack::total         5615                      
system.ruby.L1Cache_Controller.SM.Ack_all |        1626     40.30%     40.30% |         901     22.33%     62.63% |         569     14.10%     76.73% |         939     23.27%    100.00%
system.ruby.L1Cache_Controller.SM.Ack_all::total         4035                      
system.ruby.L1Cache_Controller.M_I.Fwd_GETS |           0      0.00%      0.00% |           1     50.00%     50.00% |           0      0.00%     50.00% |           1     50.00%    100.00%
system.ruby.L1Cache_Controller.M_I.Fwd_GETS::total            2                      
system.ruby.L1Cache_Controller.M_I.WB_Ack |       45361      3.32%      3.32% |      987938     72.28%     75.60% |       76856      5.62%     81.22% |      256677     18.78%    100.00%
system.ruby.L1Cache_Controller.M_I.WB_Ack::total      1366832                      
system.ruby.L1Cache_Controller.SINK_WB_ACK.WB_Ack |           0      0.00%      0.00% |           1     50.00%     50.00% |           0      0.00%     50.00% |           1     50.00%    100.00%
system.ruby.L1Cache_Controller.SINK_WB_ACK.WB_Ack::total            2                      
system.ruby.L1Cache_Controller.S_IL0.L0_Invalidate_Own |       28386     18.45%     18.45% |       50626     32.90%     51.34% |       35341     22.96%     74.31% |       39540     25.69%    100.00%
system.ruby.L1Cache_Controller.S_IL0.L0_Invalidate_Own::total       153893                      
system.ruby.L1Cache_Controller.S_IL0.L0_Invalidate_Else |         221      9.97%      9.97% |         258     11.64%     21.62% |         927     41.83%     63.45% |         810     36.55%    100.00%
system.ruby.L1Cache_Controller.S_IL0.L0_Invalidate_Else::total         2216                      
system.ruby.L1Cache_Controller.S_IL0.L0_Ack |       28607     18.33%     18.33% |       50884     32.60%     50.92% |       36268     23.23%     74.15% |       40350     25.85%    100.00%
system.ruby.L1Cache_Controller.S_IL0.L0_Ack::total       156109                      
system.ruby.L1Cache_Controller.E_IL0.WriteBack |           0      0.00%      0.00% |           0      0.00%      0.00% |           0      0.00%      0.00% |           1    100.00%    100.00%
system.ruby.L1Cache_Controller.E_IL0.WriteBack::total            1                      
system.ruby.L1Cache_Controller.E_IL0.L0_DataAck |         167      4.52%      4.52% |         221      5.98%     10.50% |         319      8.63%     19.13% |        2988     80.87%    100.00%
system.ruby.L1Cache_Controller.E_IL0.L0_DataAck::total         3695                      
system.ruby.L1Cache_Controller.E_IL0.L0_Invalidate_Own |        1211      0.70%      0.70% |      145444     84.10%     84.80% |        2247      1.30%     86.10% |       24044     13.90%    100.00%
system.ruby.L1Cache_Controller.E_IL0.L0_Invalidate_Own::total       172946                      
system.ruby.L1Cache_Controller.E_IL0.L0_Invalidate_Else |          63     16.07%     16.07% |          87     22.19%     38.27% |         102     26.02%     64.29% |         140     35.71%    100.00%
system.ruby.L1Cache_Controller.E_IL0.L0_Invalidate_Else::total          392                      
system.ruby.L1Cache_Controller.E_IL0.L0_Ack |        1107      0.65%      0.65% |      145310     85.66%     86.31% |        2030      1.20%     87.51% |       21195     12.49%    100.00%
system.ruby.L1Cache_Controller.E_IL0.L0_Ack::total       169642                      
system.ruby.L1Cache_Controller.M_IL0.L0_DataAck |        2050     12.22%     12.22% |        1609      9.59%     21.81% |        2016     12.01%     33.82% |       11105     66.18%    100.00%
system.ruby.L1Cache_Controller.M_IL0.L0_DataAck::total        16780                      
system.ruby.L1Cache_Controller.M_IL0.L0_Invalidate_Own |        2551      3.69%      3.69% |       44131     63.82%     67.50% |        3382      4.89%     72.39% |       19090     27.61%    100.00%
system.ruby.L1Cache_Controller.M_IL0.L0_Invalidate_Own::total        69154                      
system.ruby.L1Cache_Controller.M_IL0.L0_Invalidate_Else |         591     37.88%     37.88% |         259     16.60%     54.49% |         299     19.17%     73.65% |         411     26.35%    100.00%
system.ruby.L1Cache_Controller.M_IL0.L0_Invalidate_Else::total         1560                      
system.ruby.L1Cache_Controller.M_IL0.L0_Ack |        1092      2.02%      2.02% |       42781     79.32%     81.35% |        1665      3.09%     84.43% |        8396     15.57%    100.00%
system.ruby.L1Cache_Controller.M_IL0.L0_Ack::total        53934                      
system.ruby.L1Cache_Controller.MM_IL0.Fwd_GETS |           0      0.00%      0.00% |           0      0.00%      0.00% |           0      0.00%      0.00% |           1    100.00%    100.00%
system.ruby.L1Cache_Controller.MM_IL0.Fwd_GETS::total            1                      
system.ruby.L1Cache_Controller.MM_IL0.L0_Ack |           0      0.00%      0.00% |           0      0.00%      0.00% |           0      0.00%      0.00% |           1    100.00%    100.00%
system.ruby.L1Cache_Controller.MM_IL0.L0_Ack::total            1                      
system.ruby.L2Cache_Controller.L1_GETS        1413633      0.00%      0.00%
system.ruby.L2Cache_Controller.L1_GETX         114856      0.00%      0.00%
system.ruby.L2Cache_Controller.L1_UPGRADE         2972      0.00%      0.00%
system.ruby.L2Cache_Controller.L1_PUTX        1366836      0.00%      0.00%
system.ruby.L2Cache_Controller.L2_Replacement        14104      0.00%      0.00%
system.ruby.L2Cache_Controller.L2_Replacement_clean        12008      0.00%      0.00%
system.ruby.L2Cache_Controller.Mem_Data         43294      0.00%      0.00%
system.ruby.L2Cache_Controller.Mem_Ack          26118      0.00%      0.00%
system.ruby.L2Cache_Controller.WB_Data           2615      0.00%      0.00%
system.ruby.L2Cache_Controller.WB_Data_clean         2977      0.00%      0.00%
system.ruby.L2Cache_Controller.Ack               1393      0.00%      0.00%
system.ruby.L2Cache_Controller.Ack_all            769      0.00%      0.00%
system.ruby.L2Cache_Controller.Unblock           5417      0.00%      0.00%
system.ruby.L2Cache_Controller.Exclusive_Unblock      1373337      0.00%      0.00%
system.ruby.L2Cache_Controller.MEM_Inv             12      0.00%      0.00%
system.ruby.L2Cache_Controller.NP.L1_GETS        26124      0.00%      0.00%
system.ruby.L2Cache_Controller.NP.L1_GETX        17170      0.00%      0.00%
system.ruby.L2Cache_Controller.SS.L1_GETS       152653      0.00%      0.00%
system.ruby.L2Cache_Controller.SS.L1_GETX         1064      0.00%      0.00%
system.ruby.L2Cache_Controller.SS.L1_UPGRADE         2971      0.00%      0.00%
system.ruby.L2Cache_Controller.SS.L1_PUTX            2      0.00%      0.00%
system.ruby.L2Cache_Controller.SS.L2_Replacement          127      0.00%      0.00%
system.ruby.L2Cache_Controller.SS.L2_Replacement_clean          639      0.00%      0.00%
system.ruby.L2Cache_Controller.M.L1_GETS      1229390      0.00%      0.00%
system.ruby.L2Cache_Controller.M.L1_GETX        95615      0.00%      0.00%
system.ruby.L2Cache_Controller.M.L2_Replacement        13899      0.00%      0.00%
system.ruby.L2Cache_Controller.M.L2_Replacement_clean        11275      0.00%      0.00%
system.ruby.L2Cache_Controller.MT.L1_GETS         5417      0.00%      0.00%
system.ruby.L2Cache_Controller.MT.L1_GETX         1004      0.00%      0.00%
system.ruby.L2Cache_Controller.MT.L1_PUTX      1366832      0.00%      0.00%
system.ruby.L2Cache_Controller.MT.L2_Replacement           78      0.00%      0.00%
system.ruby.L2Cache_Controller.MT.L2_Replacement_clean           94      0.00%      0.00%
system.ruby.L2Cache_Controller.MT.MEM_Inv            6      0.00%      0.00%
system.ruby.L2Cache_Controller.M_I.L1_GETX            1      0.00%      0.00%
system.ruby.L2Cache_Controller.M_I.Mem_Ack        26118      0.00%      0.00%
system.ruby.L2Cache_Controller.MT_I.WB_Data           77      0.00%      0.00%
system.ruby.L2Cache_Controller.MT_I.WB_Data_clean            7      0.00%      0.00%
system.ruby.L2Cache_Controller.MT_I.MEM_Inv            6      0.00%      0.00%
system.ruby.L2Cache_Controller.MCT_I.WB_Data           36      0.00%      0.00%
system.ruby.L2Cache_Controller.MCT_I.WB_Data_clean           55      0.00%      0.00%
system.ruby.L2Cache_Controller.MCT_I.Ack_all            3      0.00%      0.00%
system.ruby.L2Cache_Controller.I_I.Ack           1263      0.00%      0.00%
system.ruby.L2Cache_Controller.I_I.Ack_all          639      0.00%      0.00%
system.ruby.L2Cache_Controller.S_I.Ack            130      0.00%      0.00%
system.ruby.L2Cache_Controller.S_I.Ack_all          127      0.00%      0.00%
system.ruby.L2Cache_Controller.ISS.L1_GETS            1      0.00%      0.00%
system.ruby.L2Cache_Controller.ISS.Mem_Data        26123      0.00%      0.00%
system.ruby.L2Cache_Controller.IS.Mem_Data            1      0.00%      0.00%
system.ruby.L2Cache_Controller.IM.Mem_Data        17170      0.00%      0.00%
system.ruby.L2Cache_Controller.SS_MB.L1_GETS           33      0.00%      0.00%
system.ruby.L2Cache_Controller.SS_MB.L1_UPGRADE            1      0.00%      0.00%
system.ruby.L2Cache_Controller.SS_MB.Exclusive_Unblock         4035      0.00%      0.00%
system.ruby.L2Cache_Controller.MT_MB.L1_GETS           15      0.00%      0.00%
system.ruby.L2Cache_Controller.MT_MB.L1_GETX            1      0.00%      0.00%
system.ruby.L2Cache_Controller.MT_MB.Exclusive_Unblock      1369302      0.00%      0.00%
system.ruby.L2Cache_Controller.MT_IIB.L1_GETX            1      0.00%      0.00%
system.ruby.L2Cache_Controller.MT_IIB.L1_PUTX            2      0.00%      0.00%
system.ruby.L2Cache_Controller.MT_IIB.WB_Data         2501      0.00%      0.00%
system.ruby.L2Cache_Controller.MT_IIB.WB_Data_clean         2907      0.00%      0.00%
system.ruby.L2Cache_Controller.MT_IIB.Unblock            9      0.00%      0.00%
system.ruby.L2Cache_Controller.MT_IB.WB_Data            1      0.00%      0.00%
system.ruby.L2Cache_Controller.MT_IB.WB_Data_clean            8      0.00%      0.00%
system.ruby.L2Cache_Controller.MT_SB.Unblock         5408      0.00%      0.00%

---------- End Simulation Statistics   ----------
