
---------- Begin Simulation Statistics ----------
sim_seconds                                  0.480517                       # Number of seconds simulated
sim_ticks                                480517157000                       # Number of ticks simulated
final_tick                               52389184479001                       # Number of ticks from beginning of simulation (restored from checkpoints and never reset)
sim_freq                                 1000000000000                       # Frequency of simulated ticks
host_inst_rate                                 157341                       # Simulator instruction rate (inst/s)
host_op_rate                                   283973                       # Simulator op (including micro ops) rate (op/s)
host_tick_rate                              281197709                       # Simulator tick rate (ticks/s)
host_mem_usage                                1817880                       # Number of bytes of host memory used
host_seconds                                  1708.82                       # Real time elapsed on the host
sim_insts                                   268868537                       # Number of instructions simulated
sim_ops                                     485260210                       # Number of ops (including micro ops) simulated
system.voltage_domain.voltage                       1                       # Voltage in Volts
system.clk_domain.clock                          1000                       # Clock period in ticks
system.mem_ctrls0.bytes_read::ruby.dir_cntrl0     10231360                       # Number of bytes read from this memory
system.mem_ctrls0.bytes_read::total          10231360                       # Number of bytes read from this memory
system.mem_ctrls0.bytes_written::ruby.dir_cntrl0     10297984                       # Number of bytes written to this memory
system.mem_ctrls0.bytes_written::total       10297984                       # Number of bytes written to this memory
system.mem_ctrls0.num_reads::ruby.dir_cntrl0       159865                       # Number of read requests responded to by this memory
system.mem_ctrls0.num_reads::total             159865                       # Number of read requests responded to by this memory
system.mem_ctrls0.num_writes::ruby.dir_cntrl0       160906                       # Number of write requests responded to by this memory
system.mem_ctrls0.num_writes::total            160906                       # Number of write requests responded to by this memory
system.mem_ctrls0.bw_read::ruby.dir_cntrl0     21292393                       # Total read bandwidth from this memory (bytes/s)
system.mem_ctrls0.bw_read::total             21292393                       # Total read bandwidth from this memory (bytes/s)
system.mem_ctrls0.bw_write::ruby.dir_cntrl0     21431043                       # Write bandwidth from this memory (bytes/s)
system.mem_ctrls0.bw_write::total            21431043                       # Write bandwidth from this memory (bytes/s)
system.mem_ctrls0.bw_total::ruby.dir_cntrl0     42723436                       # Total bandwidth to/from this memory (bytes/s)
system.mem_ctrls0.bw_total::total            42723436                       # Total bandwidth to/from this memory (bytes/s)
system.mem_ctrls0.readReqs                     159865                       # Number of read requests accepted
system.mem_ctrls0.writeReqs                    160906                       # Number of write requests accepted
system.mem_ctrls0.readBursts                   159865                       # Number of DRAM read bursts, including those serviced by the write queue
system.mem_ctrls0.writeBursts                  160906                       # Number of DRAM write bursts, including those merged in the write queue
system.mem_ctrls0.bytesReadDRAM               8876544                       # Total number of bytes read from DRAM
system.mem_ctrls0.bytesReadWrQ                1354816                       # Total number of bytes read from write queue
system.mem_ctrls0.bytesWritten                9704192                       # Total number of bytes written to DRAM
system.mem_ctrls0.bytesReadSys               10231360                       # Total read bytes from the system interface side
system.mem_ctrls0.bytesWrittenSys            10297984                       # Total written bytes from the system interface side
system.mem_ctrls0.servicedByWrQ                 21169                       # Number of DRAM read bursts serviced by the write queue
system.mem_ctrls0.mergedWrBursts                 9281                       # Number of DRAM write bursts merged with an existing one
system.mem_ctrls0.neitherReadNorWriteReqs            0                       # Number of requests that are neither read nor write
system.mem_ctrls0.perBankRdBursts::0             6222                       # Per bank write bursts
system.mem_ctrls0.perBankRdBursts::1             5088                       # Per bank write bursts
system.mem_ctrls0.perBankRdBursts::2             5873                       # Per bank write bursts
system.mem_ctrls0.perBankRdBursts::3             3394                       # Per bank write bursts
system.mem_ctrls0.perBankRdBursts::4             3413                       # Per bank write bursts
system.mem_ctrls0.perBankRdBursts::5             4787                       # Per bank write bursts
system.mem_ctrls0.perBankRdBursts::6             1635                       # Per bank write bursts
system.mem_ctrls0.perBankRdBursts::7             2694                       # Per bank write bursts
system.mem_ctrls0.perBankRdBursts::8             5870                       # Per bank write bursts
system.mem_ctrls0.perBankRdBursts::9            15494                       # Per bank write bursts
system.mem_ctrls0.perBankRdBursts::10           13400                       # Per bank write bursts
system.mem_ctrls0.perBankRdBursts::11           17129                       # Per bank write bursts
system.mem_ctrls0.perBankRdBursts::12           12536                       # Per bank write bursts
system.mem_ctrls0.perBankRdBursts::13           20799                       # Per bank write bursts
system.mem_ctrls0.perBankRdBursts::14            8064                       # Per bank write bursts
system.mem_ctrls0.perBankRdBursts::15           12298                       # Per bank write bursts
system.mem_ctrls0.perBankWrBursts::0             6458                       # Per bank write bursts
system.mem_ctrls0.perBankWrBursts::1             5913                       # Per bank write bursts
system.mem_ctrls0.perBankWrBursts::2             6233                       # Per bank write bursts
system.mem_ctrls0.perBankWrBursts::3             3679                       # Per bank write bursts
system.mem_ctrls0.perBankWrBursts::4             3850                       # Per bank write bursts
system.mem_ctrls0.perBankWrBursts::5             4904                       # Per bank write bursts
system.mem_ctrls0.perBankWrBursts::6             1713                       # Per bank write bursts
system.mem_ctrls0.perBankWrBursts::7             2834                       # Per bank write bursts
system.mem_ctrls0.perBankWrBursts::8             6149                       # Per bank write bursts
system.mem_ctrls0.perBankWrBursts::9            15790                       # Per bank write bursts
system.mem_ctrls0.perBankWrBursts::10           13600                       # Per bank write bursts
system.mem_ctrls0.perBankWrBursts::11           17800                       # Per bank write bursts
system.mem_ctrls0.perBankWrBursts::12           12938                       # Per bank write bursts
system.mem_ctrls0.perBankWrBursts::13           25855                       # Per bank write bursts
system.mem_ctrls0.perBankWrBursts::14            8136                       # Per bank write bursts
system.mem_ctrls0.perBankWrBursts::15           15776                       # Per bank write bursts
system.mem_ctrls0.numRdRetry                        0                       # Number of times read queue was full causing retry
system.mem_ctrls0.numWrRetry                        0                       # Number of times write queue was full causing retry
system.mem_ctrls0.totGap                 480517094000                       # Total gap between requests
system.mem_ctrls0.readPktSize::0                    0                       # Read request sizes (log2)
system.mem_ctrls0.readPktSize::1                    0                       # Read request sizes (log2)
system.mem_ctrls0.readPktSize::2                    0                       # Read request sizes (log2)
system.mem_ctrls0.readPktSize::3                    0                       # Read request sizes (log2)
system.mem_ctrls0.readPktSize::4                    0                       # Read request sizes (log2)
system.mem_ctrls0.readPktSize::5                    0                       # Read request sizes (log2)
system.mem_ctrls0.readPktSize::6               159865                       # Read request sizes (log2)
system.mem_ctrls0.writePktSize::0                   0                       # Write request sizes (log2)
system.mem_ctrls0.writePktSize::1                   0                       # Write request sizes (log2)
system.mem_ctrls0.writePktSize::2                   0                       # Write request sizes (log2)
system.mem_ctrls0.writePktSize::3                   0                       # Write request sizes (log2)
system.mem_ctrls0.writePktSize::4                   0                       # Write request sizes (log2)
system.mem_ctrls0.writePktSize::5                   0                       # Write request sizes (log2)
system.mem_ctrls0.writePktSize::6              160906                       # Write request sizes (log2)
system.mem_ctrls0.rdQLenPdf::0                 137927                       # What read queue length does an incoming req see
system.mem_ctrls0.rdQLenPdf::1                    764                       # What read queue length does an incoming req see
system.mem_ctrls0.rdQLenPdf::2                      5                       # What read queue length does an incoming req see
system.mem_ctrls0.rdQLenPdf::3                      0                       # What read queue length does an incoming req see
system.mem_ctrls0.rdQLenPdf::4                      0                       # What read queue length does an incoming req see
system.mem_ctrls0.rdQLenPdf::5                      0                       # What read queue length does an incoming req see
system.mem_ctrls0.rdQLenPdf::6                      0                       # What read queue length does an incoming req see
system.mem_ctrls0.rdQLenPdf::7                      0                       # What read queue length does an incoming req see
system.mem_ctrls0.rdQLenPdf::8                      0                       # What read queue length does an incoming req see
system.mem_ctrls0.rdQLenPdf::9                      0                       # What read queue length does an incoming req see
system.mem_ctrls0.rdQLenPdf::10                     0                       # What read queue length does an incoming req see
system.mem_ctrls0.rdQLenPdf::11                     0                       # What read queue length does an incoming req see
system.mem_ctrls0.rdQLenPdf::12                     0                       # What read queue length does an incoming req see
system.mem_ctrls0.rdQLenPdf::13                     0                       # What read queue length does an incoming req see
system.mem_ctrls0.rdQLenPdf::14                     0                       # What read queue length does an incoming req see
system.mem_ctrls0.rdQLenPdf::15                     0                       # What read queue length does an incoming req see
system.mem_ctrls0.rdQLenPdf::16                     0                       # What read queue length does an incoming req see
system.mem_ctrls0.rdQLenPdf::17                     0                       # What read queue length does an incoming req see
system.mem_ctrls0.rdQLenPdf::18                     0                       # What read queue length does an incoming req see
system.mem_ctrls0.rdQLenPdf::19                     0                       # What read queue length does an incoming req see
system.mem_ctrls0.rdQLenPdf::20                     0                       # What read queue length does an incoming req see
system.mem_ctrls0.rdQLenPdf::21                     0                       # What read queue length does an incoming req see
system.mem_ctrls0.rdQLenPdf::22                     0                       # What read queue length does an incoming req see
system.mem_ctrls0.rdQLenPdf::23                     0                       # What read queue length does an incoming req see
system.mem_ctrls0.rdQLenPdf::24                     0                       # What read queue length does an incoming req see
system.mem_ctrls0.rdQLenPdf::25                     0                       # What read queue length does an incoming req see
system.mem_ctrls0.rdQLenPdf::26                     0                       # What read queue length does an incoming req see
system.mem_ctrls0.rdQLenPdf::27                     0                       # What read queue length does an incoming req see
system.mem_ctrls0.rdQLenPdf::28                     0                       # What read queue length does an incoming req see
system.mem_ctrls0.rdQLenPdf::29                     0                       # What read queue length does an incoming req see
system.mem_ctrls0.rdQLenPdf::30                     0                       # What read queue length does an incoming req see
system.mem_ctrls0.rdQLenPdf::31                     0                       # What read queue length does an incoming req see
system.mem_ctrls0.wrQLenPdf::0                      0                       # What write queue length does an incoming req see
system.mem_ctrls0.wrQLenPdf::1                      0                       # What write queue length does an incoming req see
system.mem_ctrls0.wrQLenPdf::2                      0                       # What write queue length does an incoming req see
system.mem_ctrls0.wrQLenPdf::3                      0                       # What write queue length does an incoming req see
system.mem_ctrls0.wrQLenPdf::4                      0                       # What write queue length does an incoming req see
system.mem_ctrls0.wrQLenPdf::5                      0                       # What write queue length does an incoming req see
system.mem_ctrls0.wrQLenPdf::6                      0                       # What write queue length does an incoming req see
system.mem_ctrls0.wrQLenPdf::7                      0                       # What write queue length does an incoming req see
system.mem_ctrls0.wrQLenPdf::8                      0                       # What write queue length does an incoming req see
system.mem_ctrls0.wrQLenPdf::9                      0                       # What write queue length does an incoming req see
system.mem_ctrls0.wrQLenPdf::10                     0                       # What write queue length does an incoming req see
system.mem_ctrls0.wrQLenPdf::11                     0                       # What write queue length does an incoming req see
system.mem_ctrls0.wrQLenPdf::12                     0                       # What write queue length does an incoming req see
system.mem_ctrls0.wrQLenPdf::13                     0                       # What write queue length does an incoming req see
system.mem_ctrls0.wrQLenPdf::14                     0                       # What write queue length does an incoming req see
system.mem_ctrls0.wrQLenPdf::15                  1463                       # What write queue length does an incoming req see
system.mem_ctrls0.wrQLenPdf::16                  1506                       # What write queue length does an incoming req see
system.mem_ctrls0.wrQLenPdf::17                  9118                       # What write queue length does an incoming req see
system.mem_ctrls0.wrQLenPdf::18                  9309                       # What write queue length does an incoming req see
system.mem_ctrls0.wrQLenPdf::19                  9333                       # What write queue length does an incoming req see
system.mem_ctrls0.wrQLenPdf::20                  9324                       # What write queue length does an incoming req see
system.mem_ctrls0.wrQLenPdf::21                  9344                       # What write queue length does an incoming req see
system.mem_ctrls0.wrQLenPdf::22                  9333                       # What write queue length does an incoming req see
system.mem_ctrls0.wrQLenPdf::23                  9320                       # What write queue length does an incoming req see
system.mem_ctrls0.wrQLenPdf::24                  9317                       # What write queue length does an incoming req see
system.mem_ctrls0.wrQLenPdf::25                  9300                       # What write queue length does an incoming req see
system.mem_ctrls0.wrQLenPdf::26                  9288                       # What write queue length does an incoming req see
system.mem_ctrls0.wrQLenPdf::27                  9285                       # What write queue length does an incoming req see
system.mem_ctrls0.wrQLenPdf::28                  9278                       # What write queue length does an incoming req see
system.mem_ctrls0.wrQLenPdf::29                  9273                       # What write queue length does an incoming req see
system.mem_ctrls0.wrQLenPdf::30                  9269                       # What write queue length does an incoming req see
system.mem_ctrls0.wrQLenPdf::31                  9269                       # What write queue length does an incoming req see
system.mem_ctrls0.wrQLenPdf::32                  9269                       # What write queue length does an incoming req see
system.mem_ctrls0.wrQLenPdf::33                    16                       # What write queue length does an incoming req see
system.mem_ctrls0.wrQLenPdf::34                     4                       # What write queue length does an incoming req see
system.mem_ctrls0.wrQLenPdf::35                     3                       # What write queue length does an incoming req see
system.mem_ctrls0.wrQLenPdf::36                     2                       # What write queue length does an incoming req see
system.mem_ctrls0.wrQLenPdf::37                     2                       # What write queue length does an incoming req see
system.mem_ctrls0.wrQLenPdf::38                     0                       # What write queue length does an incoming req see
system.mem_ctrls0.wrQLenPdf::39                     0                       # What write queue length does an incoming req see
system.mem_ctrls0.wrQLenPdf::40                     0                       # What write queue length does an incoming req see
system.mem_ctrls0.wrQLenPdf::41                     0                       # What write queue length does an incoming req see
system.mem_ctrls0.wrQLenPdf::42                     0                       # What write queue length does an incoming req see
system.mem_ctrls0.wrQLenPdf::43                     0                       # What write queue length does an incoming req see
system.mem_ctrls0.wrQLenPdf::44                     0                       # What write queue length does an incoming req see
system.mem_ctrls0.wrQLenPdf::45                     0                       # What write queue length does an incoming req see
system.mem_ctrls0.wrQLenPdf::46                     0                       # What write queue length does an incoming req see
system.mem_ctrls0.wrQLenPdf::47                     0                       # What write queue length does an incoming req see
system.mem_ctrls0.wrQLenPdf::48                     0                       # What write queue length does an incoming req see
system.mem_ctrls0.wrQLenPdf::49                     0                       # What write queue length does an incoming req see
system.mem_ctrls0.wrQLenPdf::50                     0                       # What write queue length does an incoming req see
system.mem_ctrls0.wrQLenPdf::51                     0                       # What write queue length does an incoming req see
system.mem_ctrls0.wrQLenPdf::52                     0                       # What write queue length does an incoming req see
system.mem_ctrls0.wrQLenPdf::53                     0                       # What write queue length does an incoming req see
system.mem_ctrls0.wrQLenPdf::54                     0                       # What write queue length does an incoming req see
system.mem_ctrls0.wrQLenPdf::55                     0                       # What write queue length does an incoming req see
system.mem_ctrls0.wrQLenPdf::56                     0                       # What write queue length does an incoming req see
system.mem_ctrls0.wrQLenPdf::57                     0                       # What write queue length does an incoming req see
system.mem_ctrls0.wrQLenPdf::58                     0                       # What write queue length does an incoming req see
system.mem_ctrls0.wrQLenPdf::59                     0                       # What write queue length does an incoming req see
system.mem_ctrls0.wrQLenPdf::60                     0                       # What write queue length does an incoming req see
system.mem_ctrls0.wrQLenPdf::61                     0                       # What write queue length does an incoming req see
system.mem_ctrls0.wrQLenPdf::62                     0                       # What write queue length does an incoming req see
system.mem_ctrls0.wrQLenPdf::63                     0                       # What write queue length does an incoming req see
system.mem_ctrls0.bytesPerActivate::samples       131349                       # Bytes accessed per row activation
system.mem_ctrls0.bytesPerActivate::mean   141.467632                       # Bytes accessed per row activation
system.mem_ctrls0.bytesPerActivate::gmean   107.602508                       # Bytes accessed per row activation
system.mem_ctrls0.bytesPerActivate::stdev   133.536523                       # Bytes accessed per row activation
system.mem_ctrls0.bytesPerActivate::0-127        74385     56.63%     56.63% # Bytes accessed per row activation
system.mem_ctrls0.bytesPerActivate::128-255        34650     26.38%     83.01% # Bytes accessed per row activation
system.mem_ctrls0.bytesPerActivate::256-383        13631     10.38%     93.39% # Bytes accessed per row activation
system.mem_ctrls0.bytesPerActivate::384-511         4624      3.52%     96.91% # Bytes accessed per row activation
system.mem_ctrls0.bytesPerActivate::512-639         2024      1.54%     98.45% # Bytes accessed per row activation
system.mem_ctrls0.bytesPerActivate::640-767          844      0.64%     99.09% # Bytes accessed per row activation
system.mem_ctrls0.bytesPerActivate::768-895          482      0.37%     99.46% # Bytes accessed per row activation
system.mem_ctrls0.bytesPerActivate::896-1023          312      0.24%     99.70% # Bytes accessed per row activation
system.mem_ctrls0.bytesPerActivate::1024-1151          397      0.30%    100.00% # Bytes accessed per row activation
system.mem_ctrls0.bytesPerActivate::total       131349                       # Bytes accessed per row activation
system.mem_ctrls0.rdPerTurnAround::samples         9269                       # Reads before turning the bus around for writes
system.mem_ctrls0.rdPerTurnAround::mean     14.963534                       # Reads before turning the bus around for writes
system.mem_ctrls0.rdPerTurnAround::stdev     4.288522                       # Reads before turning the bus around for writes
system.mem_ctrls0.rdPerTurnAround::0-1             38      0.41%      0.41% # Reads before turning the bus around for writes
system.mem_ctrls0.rdPerTurnAround::2-3             61      0.66%      1.07% # Reads before turning the bus around for writes
system.mem_ctrls0.rdPerTurnAround::4-5            172      1.86%      2.92% # Reads before turning the bus around for writes
system.mem_ctrls0.rdPerTurnAround::6-7            214      2.31%      5.23% # Reads before turning the bus around for writes
system.mem_ctrls0.rdPerTurnAround::8-9            354      3.82%      9.05% # Reads before turning the bus around for writes
system.mem_ctrls0.rdPerTurnAround::10-11          363      3.92%     12.97% # Reads before turning the bus around for writes
system.mem_ctrls0.rdPerTurnAround::12-13          758      8.18%     21.15% # Reads before turning the bus around for writes
system.mem_ctrls0.rdPerTurnAround::14-15         2941     31.73%     52.88% # Reads before turning the bus around for writes
system.mem_ctrls0.rdPerTurnAround::16-17         3276     35.34%     88.22% # Reads before turning the bus around for writes
system.mem_ctrls0.rdPerTurnAround::18-19          693      7.48%     95.70% # Reads before turning the bus around for writes
system.mem_ctrls0.rdPerTurnAround::20-21          128      1.38%     97.08% # Reads before turning the bus around for writes
system.mem_ctrls0.rdPerTurnAround::22-23           62      0.67%     97.75% # Reads before turning the bus around for writes
system.mem_ctrls0.rdPerTurnAround::24-25           36      0.39%     98.13% # Reads before turning the bus around for writes
system.mem_ctrls0.rdPerTurnAround::26-27           22      0.24%     98.37% # Reads before turning the bus around for writes
system.mem_ctrls0.rdPerTurnAround::28-29           20      0.22%     98.59% # Reads before turning the bus around for writes
system.mem_ctrls0.rdPerTurnAround::30-31           22      0.24%     98.82% # Reads before turning the bus around for writes
system.mem_ctrls0.rdPerTurnAround::32-33           17      0.18%     99.01% # Reads before turning the bus around for writes
system.mem_ctrls0.rdPerTurnAround::34-35           28      0.30%     99.31% # Reads before turning the bus around for writes
system.mem_ctrls0.rdPerTurnAround::36-37           23      0.25%     99.56% # Reads before turning the bus around for writes
system.mem_ctrls0.rdPerTurnAround::38-39           18      0.19%     99.75% # Reads before turning the bus around for writes
system.mem_ctrls0.rdPerTurnAround::40-41           12      0.13%     99.88% # Reads before turning the bus around for writes
system.mem_ctrls0.rdPerTurnAround::42-43            5      0.05%     99.94% # Reads before turning the bus around for writes
system.mem_ctrls0.rdPerTurnAround::44-45            2      0.02%     99.96% # Reads before turning the bus around for writes
system.mem_ctrls0.rdPerTurnAround::46-47            1      0.01%     99.97% # Reads before turning the bus around for writes
system.mem_ctrls0.rdPerTurnAround::48-49            1      0.01%     99.98% # Reads before turning the bus around for writes
system.mem_ctrls0.rdPerTurnAround::52-53            1      0.01%     99.99% # Reads before turning the bus around for writes
system.mem_ctrls0.rdPerTurnAround::56-57            1      0.01%    100.00% # Reads before turning the bus around for writes
system.mem_ctrls0.rdPerTurnAround::total         9269                       # Reads before turning the bus around for writes
system.mem_ctrls0.wrPerTurnAround::samples         9269                       # Writes before turning the bus around for reads
system.mem_ctrls0.wrPerTurnAround::mean     16.358615                       # Writes before turning the bus around for reads
system.mem_ctrls0.wrPerTurnAround::gmean    16.338462                       # Writes before turning the bus around for reads
system.mem_ctrls0.wrPerTurnAround::stdev     0.841570                       # Writes before turning the bus around for reads
system.mem_ctrls0.wrPerTurnAround::16            7750     83.61%     83.61% # Writes before turning the bus around for reads
system.mem_ctrls0.wrPerTurnAround::17              38      0.41%     84.02% # Writes before turning the bus around for reads
system.mem_ctrls0.wrPerTurnAround::18            1214     13.10%     97.12% # Writes before turning the bus around for reads
system.mem_ctrls0.wrPerTurnAround::19             227      2.45%     99.57% # Writes before turning the bus around for reads
system.mem_ctrls0.wrPerTurnAround::20              29      0.31%     99.88% # Writes before turning the bus around for reads
system.mem_ctrls0.wrPerTurnAround::21               9      0.10%     99.98% # Writes before turning the bus around for reads
system.mem_ctrls0.wrPerTurnAround::23               1      0.01%     99.99% # Writes before turning the bus around for reads
system.mem_ctrls0.wrPerTurnAround::25               1      0.01%    100.00% # Writes before turning the bus around for reads
system.mem_ctrls0.wrPerTurnAround::total         9269                       # Writes before turning the bus around for reads
system.mem_ctrls0.totQLat                  2446400739                       # Total ticks spent queuing
system.mem_ctrls0.totMemAccLat             5046950739                       # Total ticks spent from burst creation until serviced by the DRAM
system.mem_ctrls0.totBusLat                 693480000                       # Total ticks spent in databus transfers
system.mem_ctrls0.avgQLat                    17638.58                       # Average queueing delay per DRAM burst
system.mem_ctrls0.avgBusLat                   5000.00                       # Average bus latency per DRAM burst
system.mem_ctrls0.avgMemAccLat               36388.58                       # Average memory access latency per DRAM burst
system.mem_ctrls0.avgRdBW                       18.47                       # Average DRAM read bandwidth in MiByte/s
system.mem_ctrls0.avgWrBW                       20.20                       # Average achieved write bandwidth in MiByte/s
system.mem_ctrls0.avgRdBWSys                    21.29                       # Average system read bandwidth in MiByte/s
system.mem_ctrls0.avgWrBWSys                    21.43                       # Average system write bandwidth in MiByte/s
system.mem_ctrls0.peakBW                     12800.00                       # Theoretical peak bandwidth in MiByte/s
system.mem_ctrls0.busUtil                        0.30                       # Data bus utilization in percentage
system.mem_ctrls0.busUtilRead                    0.14                       # Data bus utilization in percentage for reads
system.mem_ctrls0.busUtilWrite                   0.16                       # Data bus utilization in percentage for writes
system.mem_ctrls0.avgRdQLen                      1.00                       # Average read queue length when enqueuing
system.mem_ctrls0.avgWrQLen                     25.40                       # Average write queue length when enqueuing
system.mem_ctrls0.readRowHits                   56115                       # Number of row buffer hits during reads
system.mem_ctrls0.writeRowHits                 102868                       # Number of row buffer hits during writes
system.mem_ctrls0.readRowHitRate                40.46                       # Row buffer hit rate for reads
system.mem_ctrls0.writeRowHitRate               67.84                       # Row buffer hit rate for writes
system.mem_ctrls0.avgGap                   1498006.66                       # Average gap between requests
system.mem_ctrls0.pageHitRate                   54.76                       # Row buffer hit rate, read and write combined
system.mem_ctrls0_0.actEnergy               376858440                       # Energy for activate commands per rank (pJ)
system.mem_ctrls0_0.preEnergy               205627125                       # Energy for precharge commands per rank (pJ)
system.mem_ctrls0_0.readEnergy              330462600                       # Energy for read commands per rank (pJ)
system.mem_ctrls0_0.writeEnergy             291088080                       # Energy for write commands per rank (pJ)
system.mem_ctrls0_0.refreshEnergy         31703630400                       # Energy for refresh commands per rank (pJ)
system.mem_ctrls0_0.actBackEnergy         57537751680                       # Energy for active background per rank (pJ)
system.mem_ctrls0_0.preBackEnergy        240765339000                       # Energy for precharge background per rank (pJ)
system.mem_ctrls0_0.totalEnergy          331210757325                       # Total energy per rank (pJ)
system.mem_ctrls0_0.averagePower           682.352928                       # Core power per rank (mW)
system.mem_ctrls0_0.memoryStateTime::IDLE 399509065252                       # Time in different power states
system.mem_ctrls0_0.memoryStateTime::REF  16045640000                       # Time in different power states
system.mem_ctrls0_0.memoryStateTime::PRE_PDN            0                       # Time in different power states
system.mem_ctrls0_0.memoryStateTime::ACT  64965768248                       # Time in different power states
system.mem_ctrls0_0.memoryStateTime::ACT_PDN            0                       # Time in different power states
system.mem_ctrls0_1.actEnergy               765691920                       # Energy for activate commands per rank (pJ)
system.mem_ctrls0_1.preEnergy               417788250                       # Energy for precharge commands per rank (pJ)
system.mem_ctrls0_1.readEnergy              907647000                       # Energy for read commands per rank (pJ)
system.mem_ctrls0_1.writeEnergy             821372400                       # Energy for write commands per rank (pJ)
system.mem_ctrls0_1.refreshEnergy         31703630400                       # Energy for refresh commands per rank (pJ)
system.mem_ctrls0_1.actBackEnergy         93901194945                       # Energy for active background per rank (pJ)
system.mem_ctrls0_1.preBackEnergy        208867581750                       # Energy for precharge background per rank (pJ)
system.mem_ctrls0_1.totalEnergy          337384906665                       # Total energy per rank (pJ)
system.mem_ctrls0_1.averagePower           695.072771                       # Core power per rank (mW)
system.mem_ctrls0_1.memoryStateTime::IDLE 346443516250                       # Time in different power states
system.mem_ctrls0_1.memoryStateTime::REF  16045640000                       # Time in different power states
system.mem_ctrls0_1.memoryStateTime::PRE_PDN            0                       # Time in different power states
system.mem_ctrls0_1.memoryStateTime::ACT 118031159000                       # Time in different power states
system.mem_ctrls0_1.memoryStateTime::ACT_PDN            0                       # Time in different power states
system.mem_ctrls1.bytes_read::ruby.dir_cntrl1     14116224                       # Number of bytes read from this memory
system.mem_ctrls1.bytes_read::total          14116224                       # Number of bytes read from this memory
system.mem_ctrls1.bytes_written::ruby.dir_cntrl1     14183296                       # Number of bytes written to this memory
system.mem_ctrls1.bytes_written::total       14183296                       # Number of bytes written to this memory
system.mem_ctrls1.num_reads::ruby.dir_cntrl1       220566                       # Number of read requests responded to by this memory
system.mem_ctrls1.num_reads::total             220566                       # Number of read requests responded to by this memory
system.mem_ctrls1.num_writes::ruby.dir_cntrl1       221614                       # Number of write requests responded to by this memory
system.mem_ctrls1.num_writes::total            221614                       # Number of write requests responded to by this memory
system.mem_ctrls1.bw_read::ruby.dir_cntrl1     29377149                       # Total read bandwidth from this memory (bytes/s)
system.mem_ctrls1.bw_read::total             29377149                       # Total read bandwidth from this memory (bytes/s)
system.mem_ctrls1.bw_write::ruby.dir_cntrl1     29516732                       # Write bandwidth from this memory (bytes/s)
system.mem_ctrls1.bw_write::total            29516732                       # Write bandwidth from this memory (bytes/s)
system.mem_ctrls1.bw_total::ruby.dir_cntrl1     58893880                       # Total bandwidth to/from this memory (bytes/s)
system.mem_ctrls1.bw_total::total            58893880                       # Total bandwidth to/from this memory (bytes/s)
system.mem_ctrls1.readReqs                     220566                       # Number of read requests accepted
system.mem_ctrls1.writeReqs                    221614                       # Number of write requests accepted
system.mem_ctrls1.readBursts                   220566                       # Number of DRAM read bursts, including those serviced by the write queue
system.mem_ctrls1.writeBursts                  221614                       # Number of DRAM write bursts, including those merged in the write queue
system.mem_ctrls1.bytesReadDRAM               9128384                       # Total number of bytes read from DRAM
system.mem_ctrls1.bytesReadWrQ                4987840                       # Total number of bytes read from write queue
system.mem_ctrls1.bytesWritten               10191360                       # Total number of bytes written to DRAM
system.mem_ctrls1.bytesReadSys               14116224                       # Total read bytes from the system interface side
system.mem_ctrls1.bytesWrittenSys            14183296                       # Total written bytes from the system interface side
system.mem_ctrls1.servicedByWrQ                 77935                       # Number of DRAM read bursts serviced by the write queue
system.mem_ctrls1.mergedWrBursts                62379                       # Number of DRAM write bursts merged with an existing one
system.mem_ctrls1.neitherReadNorWriteReqs            0                       # Number of requests that are neither read nor write
system.mem_ctrls1.perBankRdBursts::0             6948                       # Per bank write bursts
system.mem_ctrls1.perBankRdBursts::1             4968                       # Per bank write bursts
system.mem_ctrls1.perBankRdBursts::2             5377                       # Per bank write bursts
system.mem_ctrls1.perBankRdBursts::3             2553                       # Per bank write bursts
system.mem_ctrls1.perBankRdBursts::4             2734                       # Per bank write bursts
system.mem_ctrls1.perBankRdBursts::5             5024                       # Per bank write bursts
system.mem_ctrls1.perBankRdBursts::6             1280                       # Per bank write bursts
system.mem_ctrls1.perBankRdBursts::7             2864                       # Per bank write bursts
system.mem_ctrls1.perBankRdBursts::8             5864                       # Per bank write bursts
system.mem_ctrls1.perBankRdBursts::9            15485                       # Per bank write bursts
system.mem_ctrls1.perBankRdBursts::10           13337                       # Per bank write bursts
system.mem_ctrls1.perBankRdBursts::11           17154                       # Per bank write bursts
system.mem_ctrls1.perBankRdBursts::12           12942                       # Per bank write bursts
system.mem_ctrls1.perBankRdBursts::13           25735                       # Per bank write bursts
system.mem_ctrls1.perBankRdBursts::14            7905                       # Per bank write bursts
system.mem_ctrls1.perBankRdBursts::15           12461                       # Per bank write bursts
system.mem_ctrls1.perBankWrBursts::0             7176                       # Per bank write bursts
system.mem_ctrls1.perBankWrBursts::1             5507                       # Per bank write bursts
system.mem_ctrls1.perBankWrBursts::2             5917                       # Per bank write bursts
system.mem_ctrls1.perBankWrBursts::3             2767                       # Per bank write bursts
system.mem_ctrls1.perBankWrBursts::4             2917                       # Per bank write bursts
system.mem_ctrls1.perBankWrBursts::5            10240                       # Per bank write bursts
system.mem_ctrls1.perBankWrBursts::6             1454                       # Per bank write bursts
system.mem_ctrls1.perBankWrBursts::7             2969                       # Per bank write bursts
system.mem_ctrls1.perBankWrBursts::8             6148                       # Per bank write bursts
system.mem_ctrls1.perBankWrBursts::9            15742                       # Per bank write bursts
system.mem_ctrls1.perBankWrBursts::10           13504                       # Per bank write bursts
system.mem_ctrls1.perBankWrBursts::11           17636                       # Per bank write bursts
system.mem_ctrls1.perBankWrBursts::12           13144                       # Per bank write bursts
system.mem_ctrls1.perBankWrBursts::13           29901                       # Per bank write bursts
system.mem_ctrls1.perBankWrBursts::14            7964                       # Per bank write bursts
system.mem_ctrls1.perBankWrBursts::15           16254                       # Per bank write bursts
system.mem_ctrls1.numRdRetry                        0                       # Number of times read queue was full causing retry
system.mem_ctrls1.numWrRetry                        0                       # Number of times write queue was full causing retry
system.mem_ctrls1.totGap                 480517230500                       # Total gap between requests
system.mem_ctrls1.readPktSize::0                    0                       # Read request sizes (log2)
system.mem_ctrls1.readPktSize::1                    0                       # Read request sizes (log2)
system.mem_ctrls1.readPktSize::2                    0                       # Read request sizes (log2)
system.mem_ctrls1.readPktSize::3                    0                       # Read request sizes (log2)
system.mem_ctrls1.readPktSize::4                    0                       # Read request sizes (log2)
system.mem_ctrls1.readPktSize::5                    0                       # Read request sizes (log2)
system.mem_ctrls1.readPktSize::6               220566                       # Read request sizes (log2)
system.mem_ctrls1.writePktSize::0                   0                       # Write request sizes (log2)
system.mem_ctrls1.writePktSize::1                   0                       # Write request sizes (log2)
system.mem_ctrls1.writePktSize::2                   0                       # Write request sizes (log2)
system.mem_ctrls1.writePktSize::3                   0                       # Write request sizes (log2)
system.mem_ctrls1.writePktSize::4                   0                       # Write request sizes (log2)
system.mem_ctrls1.writePktSize::5                   0                       # Write request sizes (log2)
system.mem_ctrls1.writePktSize::6              221614                       # Write request sizes (log2)
system.mem_ctrls1.rdQLenPdf::0                 141907                       # What read queue length does an incoming req see
system.mem_ctrls1.rdQLenPdf::1                    720                       # What read queue length does an incoming req see
system.mem_ctrls1.rdQLenPdf::2                      4                       # What read queue length does an incoming req see
system.mem_ctrls1.rdQLenPdf::3                      0                       # What read queue length does an incoming req see
system.mem_ctrls1.rdQLenPdf::4                      0                       # What read queue length does an incoming req see
system.mem_ctrls1.rdQLenPdf::5                      0                       # What read queue length does an incoming req see
system.mem_ctrls1.rdQLenPdf::6                      0                       # What read queue length does an incoming req see
system.mem_ctrls1.rdQLenPdf::7                      0                       # What read queue length does an incoming req see
system.mem_ctrls1.rdQLenPdf::8                      0                       # What read queue length does an incoming req see
system.mem_ctrls1.rdQLenPdf::9                      0                       # What read queue length does an incoming req see
system.mem_ctrls1.rdQLenPdf::10                     0                       # What read queue length does an incoming req see
system.mem_ctrls1.rdQLenPdf::11                     0                       # What read queue length does an incoming req see
system.mem_ctrls1.rdQLenPdf::12                     0                       # What read queue length does an incoming req see
system.mem_ctrls1.rdQLenPdf::13                     0                       # What read queue length does an incoming req see
system.mem_ctrls1.rdQLenPdf::14                     0                       # What read queue length does an incoming req see
system.mem_ctrls1.rdQLenPdf::15                     0                       # What read queue length does an incoming req see
system.mem_ctrls1.rdQLenPdf::16                     0                       # What read queue length does an incoming req see
system.mem_ctrls1.rdQLenPdf::17                     0                       # What read queue length does an incoming req see
system.mem_ctrls1.rdQLenPdf::18                     0                       # What read queue length does an incoming req see
system.mem_ctrls1.rdQLenPdf::19                     0                       # What read queue length does an incoming req see
system.mem_ctrls1.rdQLenPdf::20                     0                       # What read queue length does an incoming req see
system.mem_ctrls1.rdQLenPdf::21                     0                       # What read queue length does an incoming req see
system.mem_ctrls1.rdQLenPdf::22                     0                       # What read queue length does an incoming req see
system.mem_ctrls1.rdQLenPdf::23                     0                       # What read queue length does an incoming req see
system.mem_ctrls1.rdQLenPdf::24                     0                       # What read queue length does an incoming req see
system.mem_ctrls1.rdQLenPdf::25                     0                       # What read queue length does an incoming req see
system.mem_ctrls1.rdQLenPdf::26                     0                       # What read queue length does an incoming req see
system.mem_ctrls1.rdQLenPdf::27                     0                       # What read queue length does an incoming req see
system.mem_ctrls1.rdQLenPdf::28                     0                       # What read queue length does an incoming req see
system.mem_ctrls1.rdQLenPdf::29                     0                       # What read queue length does an incoming req see
system.mem_ctrls1.rdQLenPdf::30                     0                       # What read queue length does an incoming req see
system.mem_ctrls1.rdQLenPdf::31                     0                       # What read queue length does an incoming req see
system.mem_ctrls1.wrQLenPdf::0                      0                       # What write queue length does an incoming req see
system.mem_ctrls1.wrQLenPdf::1                      0                       # What write queue length does an incoming req see
system.mem_ctrls1.wrQLenPdf::2                      0                       # What write queue length does an incoming req see
system.mem_ctrls1.wrQLenPdf::3                      0                       # What write queue length does an incoming req see
system.mem_ctrls1.wrQLenPdf::4                      0                       # What write queue length does an incoming req see
system.mem_ctrls1.wrQLenPdf::5                      0                       # What write queue length does an incoming req see
system.mem_ctrls1.wrQLenPdf::6                      0                       # What write queue length does an incoming req see
system.mem_ctrls1.wrQLenPdf::7                      0                       # What write queue length does an incoming req see
system.mem_ctrls1.wrQLenPdf::8                      0                       # What write queue length does an incoming req see
system.mem_ctrls1.wrQLenPdf::9                      0                       # What write queue length does an incoming req see
system.mem_ctrls1.wrQLenPdf::10                     0                       # What write queue length does an incoming req see
system.mem_ctrls1.wrQLenPdf::11                     0                       # What write queue length does an incoming req see
system.mem_ctrls1.wrQLenPdf::12                     0                       # What write queue length does an incoming req see
system.mem_ctrls1.wrQLenPdf::13                     0                       # What write queue length does an incoming req see
system.mem_ctrls1.wrQLenPdf::14                     0                       # What write queue length does an incoming req see
system.mem_ctrls1.wrQLenPdf::15                  1831                       # What write queue length does an incoming req see
system.mem_ctrls1.wrQLenPdf::16                  1881                       # What write queue length does an incoming req see
system.mem_ctrls1.wrQLenPdf::17                  9537                       # What write queue length does an incoming req see
system.mem_ctrls1.wrQLenPdf::18                  9782                       # What write queue length does an incoming req see
system.mem_ctrls1.wrQLenPdf::19                  9769                       # What write queue length does an incoming req see
system.mem_ctrls1.wrQLenPdf::20                  9763                       # What write queue length does an incoming req see
system.mem_ctrls1.wrQLenPdf::21                  9747                       # What write queue length does an incoming req see
system.mem_ctrls1.wrQLenPdf::22                  9757                       # What write queue length does an incoming req see
system.mem_ctrls1.wrQLenPdf::23                  9736                       # What write queue length does an incoming req see
system.mem_ctrls1.wrQLenPdf::24                  9737                       # What write queue length does an incoming req see
system.mem_ctrls1.wrQLenPdf::25                  9732                       # What write queue length does an incoming req see
system.mem_ctrls1.wrQLenPdf::26                  9715                       # What write queue length does an incoming req see
system.mem_ctrls1.wrQLenPdf::27                  9708                       # What write queue length does an incoming req see
system.mem_ctrls1.wrQLenPdf::28                  9704                       # What write queue length does an incoming req see
system.mem_ctrls1.wrQLenPdf::29                  9705                       # What write queue length does an incoming req see
system.mem_ctrls1.wrQLenPdf::30                  9703                       # What write queue length does an incoming req see
system.mem_ctrls1.wrQLenPdf::31                  9701                       # What write queue length does an incoming req see
system.mem_ctrls1.wrQLenPdf::32                  9701                       # What write queue length does an incoming req see
system.mem_ctrls1.wrQLenPdf::33                     7                       # What write queue length does an incoming req see
system.mem_ctrls1.wrQLenPdf::34                     4                       # What write queue length does an incoming req see
system.mem_ctrls1.wrQLenPdf::35                     4                       # What write queue length does an incoming req see
system.mem_ctrls1.wrQLenPdf::36                     2                       # What write queue length does an incoming req see
system.mem_ctrls1.wrQLenPdf::37                     2                       # What write queue length does an incoming req see
system.mem_ctrls1.wrQLenPdf::38                     3                       # What write queue length does an incoming req see
system.mem_ctrls1.wrQLenPdf::39                     2                       # What write queue length does an incoming req see
system.mem_ctrls1.wrQLenPdf::40                     1                       # What write queue length does an incoming req see
system.mem_ctrls1.wrQLenPdf::41                     1                       # What write queue length does an incoming req see
system.mem_ctrls1.wrQLenPdf::42                     0                       # What write queue length does an incoming req see
system.mem_ctrls1.wrQLenPdf::43                     0                       # What write queue length does an incoming req see
system.mem_ctrls1.wrQLenPdf::44                     0                       # What write queue length does an incoming req see
system.mem_ctrls1.wrQLenPdf::45                     0                       # What write queue length does an incoming req see
system.mem_ctrls1.wrQLenPdf::46                     0                       # What write queue length does an incoming req see
system.mem_ctrls1.wrQLenPdf::47                     0                       # What write queue length does an incoming req see
system.mem_ctrls1.wrQLenPdf::48                     0                       # What write queue length does an incoming req see
system.mem_ctrls1.wrQLenPdf::49                     0                       # What write queue length does an incoming req see
system.mem_ctrls1.wrQLenPdf::50                     0                       # What write queue length does an incoming req see
system.mem_ctrls1.wrQLenPdf::51                     0                       # What write queue length does an incoming req see
system.mem_ctrls1.wrQLenPdf::52                     0                       # What write queue length does an incoming req see
system.mem_ctrls1.wrQLenPdf::53                     0                       # What write queue length does an incoming req see
system.mem_ctrls1.wrQLenPdf::54                     0                       # What write queue length does an incoming req see
system.mem_ctrls1.wrQLenPdf::55                     0                       # What write queue length does an incoming req see
system.mem_ctrls1.wrQLenPdf::56                     0                       # What write queue length does an incoming req see
system.mem_ctrls1.wrQLenPdf::57                     0                       # What write queue length does an incoming req see
system.mem_ctrls1.wrQLenPdf::58                     0                       # What write queue length does an incoming req see
system.mem_ctrls1.wrQLenPdf::59                     0                       # What write queue length does an incoming req see
system.mem_ctrls1.wrQLenPdf::60                     0                       # What write queue length does an incoming req see
system.mem_ctrls1.wrQLenPdf::61                     0                       # What write queue length does an incoming req see
system.mem_ctrls1.wrQLenPdf::62                     0                       # What write queue length does an incoming req see
system.mem_ctrls1.wrQLenPdf::63                     0                       # What write queue length does an incoming req see
system.mem_ctrls1.bytesPerActivate::samples       141190                       # Bytes accessed per row activation
system.mem_ctrls1.bytesPerActivate::mean   136.837340                       # Bytes accessed per row activation
system.mem_ctrls1.bytesPerActivate::gmean   105.430240                       # Bytes accessed per row activation
system.mem_ctrls1.bytesPerActivate::stdev   126.375506                       # Bytes accessed per row activation
system.mem_ctrls1.bytesPerActivate::0-127        81100     57.44%     57.44% # Bytes accessed per row activation
system.mem_ctrls1.bytesPerActivate::128-255        37423     26.51%     83.95% # Bytes accessed per row activation
system.mem_ctrls1.bytesPerActivate::256-383        14230     10.08%     94.02% # Bytes accessed per row activation
system.mem_ctrls1.bytesPerActivate::384-511         4823      3.42%     97.44% # Bytes accessed per row activation
system.mem_ctrls1.bytesPerActivate::512-639         1802      1.28%     98.72% # Bytes accessed per row activation
system.mem_ctrls1.bytesPerActivate::640-767          775      0.55%     99.27% # Bytes accessed per row activation
system.mem_ctrls1.bytesPerActivate::768-895          433      0.31%     99.57% # Bytes accessed per row activation
system.mem_ctrls1.bytesPerActivate::896-1023          269      0.19%     99.76% # Bytes accessed per row activation
system.mem_ctrls1.bytesPerActivate::1024-1151          335      0.24%    100.00% # Bytes accessed per row activation
system.mem_ctrls1.bytesPerActivate::total       141190                       # Bytes accessed per row activation
system.mem_ctrls1.rdPerTurnAround::samples         9701                       # Reads before turning the bus around for writes
system.mem_ctrls1.rdPerTurnAround::mean     14.703020                       # Reads before turning the bus around for writes
system.mem_ctrls1.rdPerTurnAround::stdev     4.169543                       # Reads before turning the bus around for writes
system.mem_ctrls1.rdPerTurnAround::0-1             48      0.49%      0.49% # Reads before turning the bus around for writes
system.mem_ctrls1.rdPerTurnAround::2-3            106      1.09%      1.59% # Reads before turning the bus around for writes
system.mem_ctrls1.rdPerTurnAround::4-5            175      1.80%      3.39% # Reads before turning the bus around for writes
system.mem_ctrls1.rdPerTurnAround::6-7            214      2.21%      5.60% # Reads before turning the bus around for writes
system.mem_ctrls1.rdPerTurnAround::8-9            242      2.49%      8.09% # Reads before turning the bus around for writes
system.mem_ctrls1.rdPerTurnAround::10-11          374      3.86%     11.95% # Reads before turning the bus around for writes
system.mem_ctrls1.rdPerTurnAround::12-13         1274     13.13%     25.08% # Reads before turning the bus around for writes
system.mem_ctrls1.rdPerTurnAround::14-15         3265     33.66%     58.74% # Reads before turning the bus around for writes
system.mem_ctrls1.rdPerTurnAround::16-17         2987     30.79%     89.53% # Reads before turning the bus around for writes
system.mem_ctrls1.rdPerTurnAround::18-19          643      6.63%     96.16% # Reads before turning the bus around for writes
system.mem_ctrls1.rdPerTurnAround::20-21          143      1.47%     97.63% # Reads before turning the bus around for writes
system.mem_ctrls1.rdPerTurnAround::22-23           46      0.47%     98.10% # Reads before turning the bus around for writes
system.mem_ctrls1.rdPerTurnAround::24-25           26      0.27%     98.37% # Reads before turning the bus around for writes
system.mem_ctrls1.rdPerTurnAround::26-27           27      0.28%     98.65% # Reads before turning the bus around for writes
system.mem_ctrls1.rdPerTurnAround::28-29           19      0.20%     98.85% # Reads before turning the bus around for writes
system.mem_ctrls1.rdPerTurnAround::30-31           19      0.20%     99.04% # Reads before turning the bus around for writes
system.mem_ctrls1.rdPerTurnAround::32-33           22      0.23%     99.27% # Reads before turning the bus around for writes
system.mem_ctrls1.rdPerTurnAround::34-35           19      0.20%     99.46% # Reads before turning the bus around for writes
system.mem_ctrls1.rdPerTurnAround::36-37           18      0.19%     99.65% # Reads before turning the bus around for writes
system.mem_ctrls1.rdPerTurnAround::38-39           15      0.15%     99.80% # Reads before turning the bus around for writes
system.mem_ctrls1.rdPerTurnAround::40-41            6      0.06%     99.87% # Reads before turning the bus around for writes
system.mem_ctrls1.rdPerTurnAround::42-43            4      0.04%     99.91% # Reads before turning the bus around for writes
system.mem_ctrls1.rdPerTurnAround::44-45            5      0.05%     99.96% # Reads before turning the bus around for writes
system.mem_ctrls1.rdPerTurnAround::46-47            1      0.01%     99.97% # Reads before turning the bus around for writes
system.mem_ctrls1.rdPerTurnAround::50-51            1      0.01%     99.98% # Reads before turning the bus around for writes
system.mem_ctrls1.rdPerTurnAround::58-59            1      0.01%     99.99% # Reads before turning the bus around for writes
system.mem_ctrls1.rdPerTurnAround::62-63            1      0.01%    100.00% # Reads before turning the bus around for writes
system.mem_ctrls1.rdPerTurnAround::total         9701                       # Reads before turning the bus around for writes
system.mem_ctrls1.wrPerTurnAround::samples         9701                       # Writes before turning the bus around for reads
system.mem_ctrls1.wrPerTurnAround::mean     16.414803                       # Writes before turning the bus around for reads
system.mem_ctrls1.wrPerTurnAround::gmean    16.392370                       # Writes before turning the bus around for reads
system.mem_ctrls1.wrPerTurnAround::stdev     0.893668                       # Writes before turning the bus around for reads
system.mem_ctrls1.wrPerTurnAround::16            7828     80.69%     80.69% # Writes before turning the bus around for reads
system.mem_ctrls1.wrPerTurnAround::17              26      0.27%     80.96% # Writes before turning the bus around for reads
system.mem_ctrls1.wrPerTurnAround::18            1618     16.68%     97.64% # Writes before turning the bus around for reads
system.mem_ctrls1.wrPerTurnAround::19             192      1.98%     99.62% # Writes before turning the bus around for reads
system.mem_ctrls1.wrPerTurnAround::20              25      0.26%     99.88% # Writes before turning the bus around for reads
system.mem_ctrls1.wrPerTurnAround::21               7      0.07%     99.95% # Writes before turning the bus around for reads
system.mem_ctrls1.wrPerTurnAround::23               3      0.03%     99.98% # Writes before turning the bus around for reads
system.mem_ctrls1.wrPerTurnAround::28               1      0.01%     99.99% # Writes before turning the bus around for reads
system.mem_ctrls1.wrPerTurnAround::34               1      0.01%    100.00% # Writes before turning the bus around for reads
system.mem_ctrls1.wrPerTurnAround::total         9701                       # Writes before turning the bus around for reads
system.mem_ctrls1.totQLat                  2570294479                       # Total ticks spent queuing
system.mem_ctrls1.totMemAccLat             5244625729                       # Total ticks spent from burst creation until serviced by the DRAM
system.mem_ctrls1.totBusLat                 713155000                       # Total ticks spent in databus transfers
system.mem_ctrls1.avgQLat                    18020.59                       # Average queueing delay per DRAM burst
system.mem_ctrls1.avgBusLat                   5000.00                       # Average bus latency per DRAM burst
system.mem_ctrls1.avgMemAccLat               36770.59                       # Average memory access latency per DRAM burst
system.mem_ctrls1.avgRdBW                       19.00                       # Average DRAM read bandwidth in MiByte/s
system.mem_ctrls1.avgWrBW                       21.21                       # Average achieved write bandwidth in MiByte/s
system.mem_ctrls1.avgRdBWSys                    29.38                       # Average system read bandwidth in MiByte/s
system.mem_ctrls1.avgWrBWSys                    29.52                       # Average system write bandwidth in MiByte/s
system.mem_ctrls1.peakBW                     12800.00                       # Theoretical peak bandwidth in MiByte/s
system.mem_ctrls1.busUtil                        0.31                       # Data bus utilization in percentage
system.mem_ctrls1.busUtilRead                    0.15                       # Data bus utilization in percentage for reads
system.mem_ctrls1.busUtilWrite                   0.17                       # Data bus utilization in percentage for writes
system.mem_ctrls1.avgRdQLen                      1.00                       # Average read queue length when enqueuing
system.mem_ctrls1.avgWrQLen                     25.40                       # Average write queue length when enqueuing
system.mem_ctrls1.readRowHits                   55293                       # Number of row buffer hits during reads
system.mem_ctrls1.writeRowHits                 105392                       # Number of row buffer hits during writes
system.mem_ctrls1.readRowHitRate                38.77                       # Row buffer hit rate for reads
system.mem_ctrls1.writeRowHitRate               66.19                       # Row buffer hit rate for writes
system.mem_ctrls1.avgGap                   1086700.51                       # Average gap between requests
system.mem_ctrls1.pageHitRate                   53.23                       # Row buffer hit rate, read and write combined
system.mem_ctrls1_0.actEnergy               395093160                       # Energy for activate commands per rank (pJ)
system.mem_ctrls1_0.preEnergy               215576625                       # Energy for precharge commands per rank (pJ)
system.mem_ctrls1_0.readEnergy              319121400                       # Energy for read commands per rank (pJ)
system.mem_ctrls1_0.writeEnergy             311688000                       # Energy for write commands per rank (pJ)
system.mem_ctrls1_0.refreshEnergy         31703630400                       # Energy for refresh commands per rank (pJ)
system.mem_ctrls1_0.actBackEnergy         58027859910                       # Energy for active background per rank (pJ)
system.mem_ctrls1_0.preBackEnergy        240335419500                       # Energy for precharge background per rank (pJ)
system.mem_ctrls1_0.totalEnergy          331308388995                       # Total energy per rank (pJ)
system.mem_ctrls1_0.averagePower           682.554066                       # Core power per rank (mW)
system.mem_ctrls1_0.memoryStateTime::IDLE 398802489501                       # Time in different power states
system.mem_ctrls1_0.memoryStateTime::REF  16045640000                       # Time in different power states
system.mem_ctrls1_0.memoryStateTime::PRE_PDN            0                       # Time in different power states
system.mem_ctrls1_0.memoryStateTime::ACT  65670699749                       # Time in different power states
system.mem_ctrls1_0.memoryStateTime::ACT_PDN            0                       # Time in different power states
system.mem_ctrls1_1.actEnergy               818392680                       # Energy for activate commands per rank (pJ)
system.mem_ctrls1_1.preEnergy               446543625                       # Energy for precharge commands per rank (pJ)
system.mem_ctrls1_1.readEnergy              947879400                       # Energy for read commands per rank (pJ)
system.mem_ctrls1_1.writeEnergy             847616400                       # Energy for write commands per rank (pJ)
system.mem_ctrls1_1.refreshEnergy         31703630400                       # Energy for refresh commands per rank (pJ)
system.mem_ctrls1_1.actBackEnergy        102978256275                       # Energy for active background per rank (pJ)
system.mem_ctrls1_1.preBackEnergy        200905247250                       # Energy for precharge background per rank (pJ)
system.mem_ctrls1_1.totalEnergy          338647566030                       # Total energy per rank (pJ)
system.mem_ctrls1_1.averagePower           697.674073                       # Core power per rank (mW)
system.mem_ctrls1_1.memoryStateTime::IDLE 333116646249                       # Time in different power states
system.mem_ctrls1_1.memoryStateTime::REF  16045640000                       # Time in different power states
system.mem_ctrls1_1.memoryStateTime::PRE_PDN            0                       # Time in different power states
system.mem_ctrls1_1.memoryStateTime::ACT 131357417001                       # Time in different power states
system.mem_ctrls1_1.memoryStateTime::ACT_PDN            0                       # Time in different power states
system.cpu_voltage_domain.voltage                   1                       # Voltage in Volts
system.cpu_clk_domain.clock                       500                       # Clock period in ticks
system.cpu0.apic_clk_domain.clock                8000                       # Clock period in ticks
system.cpu0.numCycles                       967077854                       # number of cpu cycles simulated
system.cpu0.numWorkItemsStarted                     0                       # number of work items this cpu started
system.cpu0.numWorkItemsCompleted                   0                       # number of work items this cpu completed
system.cpu0.kern.inst.arm                           0                       # number of arm instructions executed
system.cpu0.kern.inst.quiesce                       0                       # number of quiesce instructions executed
system.cpu0.committedInsts                     416960                       # Number of instructions committed
system.cpu0.committedOps                       880985                       # Number of ops (including micro ops) committed
system.cpu0.num_int_alu_accesses               865008                       # Number of integer alu accesses
system.cpu0.num_fp_alu_accesses                   387                       # Number of float alu accesses
system.cpu0.num_func_calls                      25935                       # number of times a function call or return occured
system.cpu0.num_conditional_control_insts        57943                       # number of instructions that are conditional controls
system.cpu0.num_int_insts                      865008                       # number of integer instructions
system.cpu0.num_fp_insts                          387                       # number of float instructions
system.cpu0.num_int_register_reads            1748810                       # number of times the integer registers were read
system.cpu0.num_int_register_writes            707009                       # number of times the integer registers were written
system.cpu0.num_fp_register_reads                 622                       # number of times the floating registers were read
system.cpu0.num_fp_register_writes                354                       # number of times the floating registers were written
system.cpu0.num_cc_register_reads              465468                       # number of times the CC registers were read
system.cpu0.num_cc_register_writes             269851                       # number of times the CC registers were written
system.cpu0.num_mem_refs                       209849                       # number of memory refs
system.cpu0.num_load_insts                     128538                       # Number of load instructions
system.cpu0.num_store_insts                     81311                       # Number of store instructions
system.cpu0.num_idle_cycles              963454913.231816                       # Number of idle cycles
system.cpu0.num_busy_cycles              3622940.768184                       # Number of busy cycles
system.cpu0.not_idle_fraction                0.003746                       # Percentage of non-idle cycles
system.cpu0.idle_fraction                    0.996254                       # Percentage of idle cycles
system.cpu0.Branches                            91710                       # Number of branches fetched
system.cpu0.op_class::No_OpClass                10279      1.17%      1.17% # Class of executed instruction
system.cpu0.op_class::IntAlu                   656215     74.48%     75.65% # Class of executed instruction
system.cpu0.op_class::IntMult                    1738      0.20%     75.85% # Class of executed instruction
system.cpu0.op_class::IntDiv                     2688      0.31%     76.15% # Class of executed instruction
system.cpu0.op_class::FloatAdd                    239      0.03%     76.18% # Class of executed instruction
system.cpu0.op_class::FloatCmp                      0      0.00%     76.18% # Class of executed instruction
system.cpu0.op_class::FloatCvt                      0      0.00%     76.18% # Class of executed instruction
system.cpu0.op_class::FloatMult                     0      0.00%     76.18% # Class of executed instruction
system.cpu0.op_class::FloatDiv                      0      0.00%     76.18% # Class of executed instruction
system.cpu0.op_class::FloatSqrt                     0      0.00%     76.18% # Class of executed instruction
system.cpu0.op_class::SimdAdd                       0      0.00%     76.18% # Class of executed instruction
system.cpu0.op_class::SimdAddAcc                    0      0.00%     76.18% # Class of executed instruction
system.cpu0.op_class::SimdAlu                       0      0.00%     76.18% # Class of executed instruction
system.cpu0.op_class::SimdCmp                       0      0.00%     76.18% # Class of executed instruction
system.cpu0.op_class::SimdCvt                       0      0.00%     76.18% # Class of executed instruction
system.cpu0.op_class::SimdMisc                      0      0.00%     76.18% # Class of executed instruction
system.cpu0.op_class::SimdMult                      0      0.00%     76.18% # Class of executed instruction
system.cpu0.op_class::SimdMultAcc                   0      0.00%     76.18% # Class of executed instruction
system.cpu0.op_class::SimdShift                     0      0.00%     76.18% # Class of executed instruction
system.cpu0.op_class::SimdShiftAcc                  0      0.00%     76.18% # Class of executed instruction
system.cpu0.op_class::SimdSqrt                      0      0.00%     76.18% # Class of executed instruction
system.cpu0.op_class::SimdFloatAdd                  0      0.00%     76.18% # Class of executed instruction
system.cpu0.op_class::SimdFloatAlu                  0      0.00%     76.18% # Class of executed instruction
system.cpu0.op_class::SimdFloatCmp                  0      0.00%     76.18% # Class of executed instruction
system.cpu0.op_class::SimdFloatCvt                  0      0.00%     76.18% # Class of executed instruction
system.cpu0.op_class::SimdFloatDiv                  0      0.00%     76.18% # Class of executed instruction
system.cpu0.op_class::SimdFloatMisc                 0      0.00%     76.18% # Class of executed instruction
system.cpu0.op_class::SimdFloatMult                 0      0.00%     76.18% # Class of executed instruction
system.cpu0.op_class::SimdFloatMultAcc              0      0.00%     76.18% # Class of executed instruction
system.cpu0.op_class::SimdFloatSqrt                 0      0.00%     76.18% # Class of executed instruction
system.cpu0.op_class::MemRead                  128538     14.59%     90.77% # Class of executed instruction
system.cpu0.op_class::MemWrite                  81311      9.23%    100.00% # Class of executed instruction
system.cpu0.op_class::IprAccess                     0      0.00%    100.00% # Class of executed instruction
system.cpu0.op_class::InstPrefetch                  0      0.00%    100.00% # Class of executed instruction
system.cpu0.op_class::total                    881008                       # Class of executed instruction
system.cpu1.apic_clk_domain.clock                8000                       # Clock period in ticks
system.cpu1.numCycles                       963171661                       # number of cpu cycles simulated
system.cpu1.numWorkItemsStarted                     0                       # number of work items this cpu started
system.cpu1.numWorkItemsCompleted                   0                       # number of work items this cpu completed
system.cpu1.kern.inst.arm                           0                       # number of arm instructions executed
system.cpu1.kern.inst.quiesce                       0                       # number of quiesce instructions executed
system.cpu1.committedInsts                  265733936                       # Number of instructions committed
system.cpu1.committedOps                    479165725                       # Number of ops (including micro ops) committed
system.cpu1.num_int_alu_accesses            269537252                       # Number of integer alu accesses
system.cpu1.num_fp_alu_accesses             270602519                       # Number of float alu accesses
system.cpu1.num_func_calls                    9864338                       # number of times a function call or return occured
system.cpu1.num_conditional_control_insts     14997192                       # number of instructions that are conditional controls
system.cpu1.num_int_insts                   269537252                       # number of integer instructions
system.cpu1.num_fp_insts                    270602519                       # number of float instructions
system.cpu1.num_int_register_reads          512482315                       # number of times the integer registers were read
system.cpu1.num_int_register_writes         176043682                       # number of times the integer registers were written
system.cpu1.num_fp_register_reads           446698678                       # number of times the floating registers were read
system.cpu1.num_fp_register_writes          249457043                       # number of times the floating registers were written
system.cpu1.num_cc_register_reads           106891468                       # number of times the CC registers were read
system.cpu1.num_cc_register_writes           82960905                       # number of times the CC registers were written
system.cpu1.num_mem_refs                     84020227                       # number of memory refs
system.cpu1.num_load_insts                   62866121                       # Number of load instructions
system.cpu1.num_store_insts                  21154106                       # Number of store instructions
system.cpu1.num_idle_cycles              6020762.503827                       # Number of idle cycles
system.cpu1.num_busy_cycles              957150898.496173                       # Number of busy cycles
system.cpu1.not_idle_fraction                0.993749                       # Percentage of non-idle cycles
system.cpu1.idle_fraction                    0.006251                       # Percentage of idle cycles
system.cpu1.Branches                         27044796                       # Number of branches fetched
system.cpu1.op_class::No_OpClass                10648      0.00%      0.00% # Class of executed instruction
system.cpu1.op_class::IntAlu                244762842     51.08%     51.08% # Class of executed instruction
system.cpu1.op_class::IntMult                    2435      0.00%     51.08% # Class of executed instruction
system.cpu1.op_class::IntDiv                     1748      0.00%     51.08% # Class of executed instruction
system.cpu1.op_class::FloatAdd              150367922     31.38%     82.47% # Class of executed instruction
system.cpu1.op_class::FloatCmp                      0      0.00%     82.47% # Class of executed instruction
system.cpu1.op_class::FloatCvt                      0      0.00%     82.47% # Class of executed instruction
system.cpu1.op_class::FloatMult                     0      0.00%     82.47% # Class of executed instruction
system.cpu1.op_class::FloatDiv                      0      0.00%     82.47% # Class of executed instruction
system.cpu1.op_class::FloatSqrt                     0      0.00%     82.47% # Class of executed instruction
system.cpu1.op_class::SimdAdd                       0      0.00%     82.47% # Class of executed instruction
[...]
system.ruby.ST.Directory.miss_type_mach_latency_hist_seqr::total       112985                      
system.ruby.IFETCH.L1Cache.miss_type_mach_latency_hist_seqr::bucket_size           64                      
system.ruby.IFETCH.L1Cache.miss_type_mach_latency_hist_seqr::max_bucket          639                      
system.ruby.IFETCH.L1Cache.miss_type_mach_latency_hist_seqr::samples       212726                      
system.ruby.IFETCH.L1Cache.miss_type_mach_latency_hist_seqr::mean    46.086886                      
system.ruby.IFETCH.L1Cache.miss_type_mach_latency_hist_seqr::gmean    46.042590                      
system.ruby.IFETCH.L1Cache.miss_type_mach_latency_hist_seqr::stdev     2.584652                      
system.ruby.IFETCH.L1Cache.miss_type_mach_latency_hist_seqr |      212692     99.98%     99.98% |          27      0.01%    100.00% |           5      0.00%    100.00% |           0      0.00%    100.00% |           0      0.00%    100.00% |           0      0.00%    100.00% |           0      0.00%    100.00% |           0      0.00%    100.00% |           1      0.00%    100.00% |           1      0.00%    100.00%
system.ruby.IFETCH.L1Cache.miss_type_mach_latency_hist_seqr::total       212726                      
system.ruby.IFETCH.Directory.miss_type_mach_latency_hist_seqr::bucket_size          128                      
system.ruby.IFETCH.Directory.miss_type_mach_latency_hist_seqr::max_bucket         1279                      
system.ruby.IFETCH.Directory.miss_type_mach_latency_hist_seqr::samples       175400                      
system.ruby.IFETCH.Directory.miss_type_mach_latency_hist_seqr::mean   106.660479                      
system.ruby.IFETCH.Directory.miss_type_mach_latency_hist_seqr::gmean    89.348216                      
system.ruby.IFETCH.Directory.miss_type_mach_latency_hist_seqr::stdev    75.496274                      
system.ruby.IFETCH.Directory.miss_type_mach_latency_hist_seqr |      142147     81.04%     81.04% |       25512     14.55%     95.59% |        5650      3.22%     98.81% |         796      0.45%     99.26% |         929      0.53%     99.79% |         289      0.16%     99.96% |          30      0.02%     99.97% |          42      0.02%    100.00% |           5      0.00%    100.00% |           0      0.00%    100.00%
system.ruby.IFETCH.Directory.miss_type_mach_latency_hist_seqr::total       175400                      
system.ruby.RMW_Read.L1Cache.miss_type_mach_latency_hist_seqr::bucket_size            8                      
system.ruby.RMW_Read.L1Cache.miss_type_mach_latency_hist_seqr::max_bucket           79                      
system.ruby.RMW_Read.L1Cache.miss_type_mach_latency_hist_seqr::samples          444                      
system.ruby.RMW_Read.L1Cache.miss_type_mach_latency_hist_seqr::mean    45.632883                      
system.ruby.RMW_Read.L1Cache.miss_type_mach_latency_hist_seqr::gmean    45.609541                      
system.ruby.RMW_Read.L1Cache.miss_type_mach_latency_hist_seqr::stdev     1.492767                      
system.ruby.RMW_Read.L1Cache.miss_type_mach_latency_hist_seqr |           0      0.00%      0.00% |           0      0.00%      0.00% |           0      0.00%      0.00% |           0      0.00%      0.00% |           0      0.00%      0.00% |         376     84.68%     84.68% |          68     15.32%    100.00% |           0      0.00%    100.00% |           0      0.00%    100.00% |           0      0.00%    100.00%
system.ruby.RMW_Read.L1Cache.miss_type_mach_latency_hist_seqr::total          444                      
system.ruby.RMW_Read.Directory.miss_type_mach_latency_hist_seqr::bucket_size          128                      
system.ruby.RMW_Read.Directory.miss_type_mach_latency_hist_seqr::max_bucket         1279                      
system.ruby.RMW_Read.Directory.miss_type_mach_latency_hist_seqr::samples         4961                      
system.ruby.RMW_Read.Directory.miss_type_mach_latency_hist_seqr::mean   133.537593                      
system.ruby.RMW_Read.Directory.miss_type_mach_latency_hist_seqr::gmean   123.406159                      
system.ruby.RMW_Read.Directory.miss_type_mach_latency_hist_seqr::stdev    66.040755                      
system.ruby.RMW_Read.Directory.miss_type_mach_latency_hist_seqr |        3693     74.44%     74.44% |         942     18.99%     93.43% |         267      5.38%     98.81% |          26      0.52%     99.33% |          22      0.44%     99.78% |          11      0.22%    100.00% |           0      0.00%    100.00% |           0      0.00%    100.00% |           0      0.00%    100.00% |           0      0.00%    100.00%
system.ruby.RMW_Read.Directory.miss_type_mach_latency_hist_seqr::total         4961                      
system.ruby.Locked_RMW_Read.L1Cache.miss_type_mach_latency_hist_seqr::bucket_size            8                      
system.ruby.Locked_RMW_Read.L1Cache.miss_type_mach_latency_hist_seqr::max_bucket           79                      
system.ruby.Locked_RMW_Read.L1Cache.miss_type_mach_latency_hist_seqr::samples         1230                      
system.ruby.Locked_RMW_Read.L1Cache.miss_type_mach_latency_hist_seqr::mean    46.200000                      
system.ruby.Locked_RMW_Read.L1Cache.miss_type_mach_latency_hist_seqr::gmean    46.163433                      
system.ruby.Locked_RMW_Read.L1Cache.miss_type_mach_latency_hist_seqr::stdev     1.862394                      
system.ruby.Locked_RMW_Read.L1Cache.miss_type_mach_latency_hist_seqr |           0      0.00%      0.00% |           0      0.00%      0.00% |           0      0.00%      0.00% |           0      0.00%      0.00% |           0      0.00%      0.00% |         868     70.57%     70.57% |         362     29.43%    100.00% |           0      0.00%    100.00% |           0      0.00%    100.00% |           0      0.00%    100.00%
system.ruby.Locked_RMW_Read.L1Cache.miss_type_mach_latency_hist_seqr::total         1230                      
system.ruby.Locked_RMW_Read.Directory.miss_type_mach_latency_hist_seqr::bucket_size          128                      
system.ruby.Locked_RMW_Read.Directory.miss_type_mach_latency_hist_seqr::max_bucket         1279                      
system.ruby.Locked_RMW_Read.Directory.miss_type_mach_latency_hist_seqr::samples         4127                      
system.ruby.Locked_RMW_Read.Directory.miss_type_mach_latency_hist_seqr::mean   141.146838                      
system.ruby.Locked_RMW_Read.Directory.miss_type_mach_latency_hist_seqr::gmean   128.030510                      
system.ruby.Locked_RMW_Read.Directory.miss_type_mach_latency_hist_seqr::stdev    79.486846                      
system.ruby.Locked_RMW_Read.Directory.miss_type_mach_latency_hist_seqr |        2688     65.13%     65.13% |        1134     27.48%     92.61% |         222      5.38%     97.99% |          40      0.97%     98.96% |          28      0.68%     99.64% |          10      0.24%     99.88% |           2      0.05%     99.93% |           3      0.07%    100.00% |           0      0.00%    100.00% |           0      0.00%    100.00%
system.ruby.Locked_RMW_Read.Directory.miss_type_mach_latency_hist_seqr::total         4127                      
system.ruby.Directory_Controller.GETX    |      351577     47.40%     47.40% |      390074     52.60%    100.00%
system.ruby.Directory_Controller.GETX::total       741651                      
system.ruby.Directory_Controller.PUTX    |      264301     45.85%     45.85% |      312178     54.15%    100.00%
system.ruby.Directory_Controller.PUTX::total       576479                      
system.ruby.Directory_Controller.PUTX_NotOwner |           1     33.33%     33.33% |           2     66.67%    100.00%
system.ruby.Directory_Controller.PUTX_NotOwner::total            3                      
system.ruby.Directory_Controller.DMA_READ |          18     60.00%     60.00% |          12     40.00%    100.00%
system.ruby.Directory_Controller.DMA_READ::total           30                      
system.ruby.Directory_Controller.DMA_WRITE |        1120     50.00%     50.00% |        1120     50.00%    100.00%
system.ruby.Directory_Controller.DMA_WRITE::total         2240                      
system.ruby.Directory_Controller.Memory_Data |      264402     45.85%     45.85% |      312287     54.15%    100.00%
system.ruby.Directory_Controller.Memory_Data::total       576689                      
system.ruby.Directory_Controller.Memory_Ack |      265421     45.86%     45.86% |      313298     54.14%    100.00%
system.ruby.Directory_Controller.Memory_Ack::total       578719                      
system.ruby.Directory_Controller.I.GETX  |      264388     45.85%     45.85% |      312277     54.15%    100.00%
system.ruby.Directory_Controller.I.GETX::total       576665                      
system.ruby.Directory_Controller.I.DMA_READ |          14     58.33%     58.33% |          10     41.67%    100.00%
system.ruby.Directory_Controller.I.DMA_READ::total           24                      
system.ruby.Directory_Controller.I.DMA_WRITE |        1120     50.00%     50.00% |        1120     50.00%    100.00%
system.ruby.Directory_Controller.I.DMA_WRITE::total         2240                      
system.ruby.Directory_Controller.M.GETX  |       87083     52.87%     52.87% |       77620     47.13%    100.00%
system.ruby.Directory_Controller.M.GETX::total       164703                      
system.ruby.Directory_Controller.M.PUTX  |      264297     45.85%     45.85% |      312176     54.15%    100.00%
system.ruby.Directory_Controller.M.PUTX::total       576473                      
system.ruby.Directory_Controller.M.PUTX_NotOwner |           1     33.33%     33.33% |           2     66.67%    100.00%
system.ruby.Directory_Controller.M.PUTX_NotOwner::total            3                      
system.ruby.Directory_Controller.M.DMA_READ |           4     66.67%     66.67% |           2     33.33%    100.00%
system.ruby.Directory_Controller.M.DMA_READ::total            6                      
system.ruby.Directory_Controller.M_DRD.PUTX |           4     66.67%     66.67% |           2     33.33%    100.00%
system.ruby.Directory_Controller.M_DRD.PUTX::total            6                      
system.ruby.Directory_Controller.M_DRDI.Memory_Ack |           4     66.67%     66.67% |           2     33.33%    100.00%
system.ruby.Directory_Controller.M_DRDI.Memory_Ack::total            6                      
system.ruby.Directory_Controller.IM.GETX |         104     37.01%     37.01% |         177     62.99%    100.00%
system.ruby.Directory_Controller.IM.GETX::total          281                      
system.ruby.Directory_Controller.IM.Memory_Data |      264388     45.85%     45.85% |      312277     54.15%    100.00%
system.ruby.Directory_Controller.IM.Memory_Data::total       576665                      
system.ruby.Directory_Controller.MI.GETX |           2    100.00%    100.00% |           0      0.00%    100.00%
system.ruby.Directory_Controller.MI.GETX::total            2                      
system.ruby.Directory_Controller.MI.Memory_Ack |      264297     45.85%     45.85% |      312176     54.15%    100.00%
system.ruby.Directory_Controller.MI.Memory_Ack::total       576473                      
system.ruby.Directory_Controller.ID.Memory_Data |          14     58.33%     58.33% |          10     41.67%    100.00%
system.ruby.Directory_Controller.ID.Memory_Data::total           24                      
system.ruby.Directory_Controller.ID_W.Memory_Ack |        1120     50.00%     50.00% |        1120     50.00%    100.00%
system.ruby.Directory_Controller.ID_W.Memory_Ack::total         2240                      
system.ruby.DMA_Controller.ReadRequest   |          30    100.00%    100.00% |           0      0.00%    100.00%
system.ruby.DMA_Controller.ReadRequest::total           30                      
system.ruby.DMA_Controller.WriteRequest  |        2240    100.00%    100.00% |           0      0.00%    100.00%
system.ruby.DMA_Controller.WriteRequest::total         2240                      
system.ruby.DMA_Controller.Data          |          30    100.00%    100.00% |           0      0.00%    100.00%
system.ruby.DMA_Controller.Data::total             30                      
system.ruby.DMA_Controller.Ack           |        2240    100.00%    100.00% |           0      0.00%    100.00%
system.ruby.DMA_Controller.Ack::total            2240                      
system.ruby.DMA_Controller.READY.ReadRequest |          30    100.00%    100.00% |           0      0.00%    100.00%
system.ruby.DMA_Controller.READY.ReadRequest::total           30                      
system.ruby.DMA_Controller.READY.WriteRequest |        2240    100.00%    100.00% |           0      0.00%    100.00%
system.ruby.DMA_Controller.READY.WriteRequest::total         2240                      
system.ruby.DMA_Controller.BUSY_RD.Data  |          30    100.00%    100.00% |           0      0.00%    100.00%
system.ruby.DMA_Controller.BUSY_RD.Data::total           30                      
system.ruby.DMA_Controller.BUSY_WR.Ack   |        2240    100.00%    100.00% |           0      0.00%    100.00%
system.ruby.DMA_Controller.BUSY_WR.Ack::total         2240                      
system.ruby.L1Cache_Controller.Load      |      584887      0.86%      0.86% |    63125385     92.85%     93.71% |      446643      0.66%     94.37% |     3830229      5.63%    100.00%
system.ruby.L1Cache_Controller.Load::total     67987144                      
system.ruby.L1Cache_Controller.Ifetch    |     2966420      0.74%      0.74% |   376120086     93.29%     94.02% |     2346582      0.58%     94.60% |    21757116      5.40%    100.00%
system.ruby.L1Cache_Controller.Ifetch::total    403190204                      
system.ruby.L1Cache_Controller.Store     |      470726      1.89%      1.89% |    21365092     85.64%     87.53% |      336516      1.35%     88.88% |     2774180     11.12%    100.00%
system.ruby.L1Cache_Controller.Store::total     24946514                      
system.ruby.L1Cache_Controller.Data      |       87159     11.76%     11.76% |      406642     54.85%     66.61% |       80247     10.82%     77.43% |      167320     22.57%    100.00%
system.ruby.L1Cache_Controller.Data::total       741368                      
system.ruby.L1Cache_Controller.Fwd_GETX  |       50166     30.46%     30.46% |       31829     19.33%     49.78% |       39398     23.92%     73.70% |       43310     26.30%    100.00%
system.ruby.L1Cache_Controller.Fwd_GETX::total       164703                      
system.ruby.L1Cache_Controller.Inv       |           4     33.33%     33.33% |           0      0.00%     33.33% |           6     50.00%     83.33% |           2     16.67%    100.00%
system.ruby.L1Cache_Controller.Inv::total           12                      
system.ruby.L1Cache_Controller.Replacement |       45152      7.35%      7.35% |      389810     63.46%     70.81% |       47900      7.80%     78.61% |      131365     21.39%    100.00%
system.ruby.L1Cache_Controller.Replacement::total       614227                      
system.ruby.L1Cache_Controller.Writeback_Ack |       36844      6.39%      6.39% |      374285     64.93%     71.32% |       40976      7.11%     78.43% |      124374     21.57%    100.00%
system.ruby.L1Cache_Controller.Writeback_Ack::total       576479                      
system.ruby.L1Cache_Controller.Writeback_Nack |           0      0.00%      0.00% |           0      0.00%      0.00% |           1     33.33%     33.33% |           2     66.67%    100.00%
system.ruby.L1Cache_Controller.Writeback_Nack::total            3                      
system.ruby.L1Cache_Controller.I.Load    |       22507      5.67%      5.67% |      294072     74.09%     79.76% |       23972      6.04%     85.80% |       56374     14.20%    100.00%
system.ruby.L1Cache_Controller.I.Load::total       396925                      
system.ruby.L1Cache_Controller.I.Ifetch  |       54151     20.74%     20.74% |       69976     26.80%     47.53% |       48706     18.65%     66.18% |       88308     33.82%    100.00%
system.ruby.L1Cache_Controller.I.Ifetch::total       261141                      
system.ruby.L1Cache_Controller.I.Store   |       10501     12.61%     12.61% |       42594     51.13%     63.74% |        7569      9.09%     72.82% |       22638     27.18%    100.00%
system.ruby.L1Cache_Controller.I.Store::total        83302                      
system.ruby.L1Cache_Controller.I.Replacement |        8310     22.01%     22.01% |       15525     41.12%     63.14% |        6926     18.35%     81.48% |        6990     18.52%    100.00%
system.ruby.L1Cache_Controller.I.Replacement::total        37751                      
system.ruby.L1Cache_Controller.II.Writeback_Nack |           0      0.00%      0.00% |           0      0.00%      0.00% |           1     33.33%     33.33% |           2     66.67%    100.00%
system.ruby.L1Cache_Controller.II.Writeback_Nack::total            3                      
system.ruby.L1Cache_Controller.M.Load    |      562380      0.83%      0.83% |    62831313     92.96%     93.79% |      422671      0.63%     94.42% |     3773855      5.58%    100.00%
system.ruby.L1Cache_Controller.M.Load::total     67590219                      
system.ruby.L1Cache_Controller.M.Ifetch  |     2912269      0.72%      0.72% |   376050110     93.33%     94.05% |     2297876      0.57%     94.62% |    21668808      5.38%    100.00%
system.ruby.L1Cache_Controller.M.Ifetch::total    402929063                      
system.ruby.L1Cache_Controller.M.Store   |      460225      1.85%      1.85% |    21322498     85.76%     87.61% |      328947      1.32%     88.93% |     2751542     11.07%    100.00%
system.ruby.L1Cache_Controller.M.Store::total     24863212                      
system.ruby.L1Cache_Controller.M.Fwd_GETX |       50166     30.46%     30.46% |       31829     19.33%     49.78% |       39397     23.92%     73.70% |       43308     26.30%    100.00%
system.ruby.L1Cache_Controller.M.Fwd_GETX::total       164700                      
system.ruby.L1Cache_Controller.M.Inv     |           2     33.33%     33.33% |           0      0.00%     33.33% |           3     50.00%     83.33% |           1     16.67%    100.00%
system.ruby.L1Cache_Controller.M.Inv::total            6                      
system.ruby.L1Cache_Controller.M.Replacement |       36842      6.39%      6.39% |      374285     64.93%     71.32% |       40974      7.11%     78.42% |      124375     21.58%    100.00%
system.ruby.L1Cache_Controller.M.Replacement::total       576476                      
system.ruby.L1Cache_Controller.MI.Fwd_GETX |           0      0.00%      0.00% |           0      0.00%      0.00% |           1     33.33%     33.33% |           2     66.67%    100.00%
system.ruby.L1Cache_Controller.MI.Fwd_GETX::total            3                      
system.ruby.L1Cache_Controller.MI.Inv    |           2     33.33%     33.33% |           0      0.00%     33.33% |           3     50.00%     83.33% |           1     16.67%    100.00%
system.ruby.L1Cache_Controller.MI.Inv::total            6                      
system.ruby.L1Cache_Controller.MI.Writeback_Ack |       36844      6.39%      6.39% |      374285     64.93%     71.32% |       40976      7.11%     78.43% |      124374     21.57%    100.00%
system.ruby.L1Cache_Controller.MI.Writeback_Ack::total       576479                      
system.ruby.L1Cache_Controller.IS.Data   |       76658     11.65%     11.65% |      364048     55.32%     66.97% |       72678     11.04%     78.01% |      144682     21.99%    100.00%
system.ruby.L1Cache_Controller.IS.Data::total       658066                      
system.ruby.L1Cache_Controller.IM.Data   |       10501     12.61%     12.61% |       42594     51.13%     63.74% |        7569      9.09%     72.82% |       22638     27.18%    100.00%
system.ruby.L1Cache_Controller.IM.Data::total        83302                      

---------- End Simulation Statistics   ----------
