
---------- Begin Simulation Statistics ----------
sim_seconds                                  3.888386                       # Number of seconds simulated
sim_ticks                                3888385890000                       # Number of ticks simulated
final_tick                               56085743413001                       # Number of ticks from beginning of simulation (restored from checkpoints and never reset)
sim_freq                                 1000000000000                       # Frequency of simulated ticks
host_inst_rate                                 147950                       # Simulator instruction rate (inst/s)
host_op_rate                                   207414                       # Simulator op (including micro ops) rate (op/s)
host_tick_rate                              255632464                       # Simulator tick rate (ticks/s)
host_mem_usage                                1836944                       # Number of bytes of host memory used
host_seconds                                 15210.85                       # Real time elapsed on the host
sim_insts                                  2250450423                       # Number of instructions simulated
sim_ops                                    3154935722                       # Number of ops (including micro ops) simulated
system.voltage_domain.voltage                       1                       # Voltage in Volts
system.clk_domain.clock                          1000                       # Clock period in ticks
system.mem_ctrls0.bytes_read::ruby.dir_cntrl0     22878464                       # Number of bytes read from this memory
system.mem_ctrls0.bytes_read::total          22878464                       # Number of bytes read from this memory
system.mem_ctrls0.bytes_written::ruby.dir_cntrl0     12465024                       # Number of bytes written to this memory
system.mem_ctrls0.bytes_written::total       12465024                       # Number of bytes written to this memory
system.mem_ctrls0.num_reads::ruby.dir_cntrl0       357476                       # Number of read requests responded to by this memory
system.mem_ctrls0.num_reads::total             357476                       # Number of read requests responded to by this memory
system.mem_ctrls0.num_writes::ruby.dir_cntrl0       194766                       # Number of write requests responded to by this memory
system.mem_ctrls0.num_writes::total            194766                       # Number of write requests responded to by this memory
system.mem_ctrls0.bw_read::ruby.dir_cntrl0      5883795                       # Total read bandwidth from this memory (bytes/s)
system.mem_ctrls0.bw_read::total              5883795                       # Total read bandwidth from this memory (bytes/s)
system.mem_ctrls0.bw_write::ruby.dir_cntrl0      3205707                       # Write bandwidth from this memory (bytes/s)
system.mem_ctrls0.bw_write::total             3205707                       # Write bandwidth from this memory (bytes/s)
system.mem_ctrls0.bw_total::ruby.dir_cntrl0      9089501                       # Total bandwidth to/from this memory (bytes/s)
system.mem_ctrls0.bw_total::total             9089501                       # Total bandwidth to/from this memory (bytes/s)
system.mem_ctrls0.readReqs                     357476                       # Number of read requests accepted
system.mem_ctrls0.writeReqs                    194766                       # Number of write requests accepted
system.mem_ctrls0.readBursts                   357476                       # Number of DRAM read bursts, including those serviced by the write queue
system.mem_ctrls0.writeBursts                  194766                       # Number of DRAM write bursts, including those merged in the write queue
system.mem_ctrls0.bytesReadDRAM              22773184                       # Total number of bytes read from DRAM
system.mem_ctrls0.bytesReadWrQ                 105280                       # Total number of bytes read from write queue
system.mem_ctrls0.bytesWritten               12463808                       # Total number of bytes written to DRAM
system.mem_ctrls0.bytesReadSys               22878464                       # Total read bytes from the system interface side
system.mem_ctrls0.bytesWrittenSys            12465024                       # Total written bytes from the system interface side
system.mem_ctrls0.servicedByWrQ                  1645                       # Number of DRAM read bursts serviced by the write queue
system.mem_ctrls0.mergedWrBursts                    3                       # Number of DRAM write bursts merged with an existing one
system.mem_ctrls0.neitherReadNorWriteReqs            0                       # Number of requests that are neither read nor write
system.mem_ctrls0.perBankRdBursts::0            25362                       # Per bank write bursts
system.mem_ctrls0.perBankRdBursts::1            26468                       # Per bank write bursts
system.mem_ctrls0.perBankRdBursts::2            26953                       # Per bank write bursts
system.mem_ctrls0.perBankRdBursts::3            21430                       # Per bank write bursts
system.mem_ctrls0.perBankRdBursts::4            19817                       # Per bank write bursts
system.mem_ctrls0.perBankRdBursts::5            20045                       # Per bank write bursts
system.mem_ctrls0.perBankRdBursts::6            19124                       # Per bank write bursts
system.mem_ctrls0.perBankRdBursts::7            21622                       # Per bank write bursts
system.mem_ctrls0.perBankRdBursts::8            20599                       # Per bank write bursts
system.mem_ctrls0.perBankRdBursts::9            23813                       # Per bank write bursts
system.mem_ctrls0.perBankRdBursts::10           23795                       # Per bank write bursts
system.mem_ctrls0.perBankRdBursts::11           21267                       # Per bank write bursts
system.mem_ctrls0.perBankRdBursts::12           20426                       # Per bank write bursts
system.mem_ctrls0.perBankRdBursts::13           20823                       # Per bank write bursts
system.mem_ctrls0.perBankRdBursts::14           19792                       # Per bank write bursts
system.mem_ctrls0.perBankRdBursts::15           24495                       # Per bank write bursts
system.mem_ctrls0.perBankWrBursts::0            14076                       # Per bank write bursts
system.mem_ctrls0.perBankWrBursts::1            14232                       # Per bank write bursts
system.mem_ctrls0.perBankWrBursts::2            14183                       # Per bank write bursts
system.mem_ctrls0.perBankWrBursts::3            12142                       # Per bank write bursts
system.mem_ctrls0.perBankWrBursts::4            11213                       # Per bank write bursts
system.mem_ctrls0.perBankWrBursts::5            11177                       # Per bank write bursts
system.mem_ctrls0.perBankWrBursts::6            10808                       # Per bank write bursts
system.mem_ctrls0.perBankWrBursts::7            12135                       # Per bank write bursts
system.mem_ctrls0.perBankWrBursts::8            11169                       # Per bank write bursts
system.mem_ctrls0.perBankWrBursts::9            12563                       # Per bank write bursts
system.mem_ctrls0.perBankWrBursts::10           12198                       # Per bank write bursts
system.mem_ctrls0.perBankWrBursts::11           11558                       # Per bank write bursts
system.mem_ctrls0.perBankWrBursts::12           11335                       # Per bank write bursts
system.mem_ctrls0.perBankWrBursts::13           11722                       # Per bank write bursts
system.mem_ctrls0.perBankWrBursts::14           11091                       # Per bank write bursts
system.mem_ctrls0.perBankWrBursts::15           13145                       # Per bank write bursts
system.mem_ctrls0.numRdRetry                        0                       # Number of times read queue was full causing retry
system.mem_ctrls0.numWrRetry                        0                       # Number of times write queue was full causing retry
system.mem_ctrls0.totGap                 3888385749000                       # Total gap between requests
system.mem_ctrls0.readPktSize::0                    0                       # Read request sizes (log2)
system.mem_ctrls0.readPktSize::1                    0                       # Read request sizes (log2)
system.mem_ctrls0.readPktSize::2                    0                       # Read request sizes (log2)
system.mem_ctrls0.readPktSize::3                    0                       # Read request sizes (log2)
system.mem_ctrls0.readPktSize::4                    0                       # Read request sizes (log2)
system.mem_ctrls0.readPktSize::5                    0                       # Read request sizes (log2)
system.mem_ctrls0.readPktSize::6               357476                       # Read request sizes (log2)
system.mem_ctrls0.writePktSize::0                   0                       # Write request sizes (log2)
system.mem_ctrls0.writePktSize::1                   0                       # Write request sizes (log2)
system.mem_ctrls0.writePktSize::2                   0                       # Write request sizes (log2)
system.mem_ctrls0.writePktSize::3                   0                       # Write request sizes (log2)
system.mem_ctrls0.writePktSize::4                   0                       # Write request sizes (log2)
system.mem_ctrls0.writePktSize::5                   0                       # Write request sizes (log2)
system.mem_ctrls0.writePktSize::6              194766                       # Write request sizes (log2)
system.mem_ctrls0.rdQLenPdf::0                 355792                       # What read queue length does an incoming req see
system.mem_ctrls0.rdQLenPdf::1                     39                       # What read queue length does an incoming req see
system.mem_ctrls0.rdQLenPdf::2                      0                       # What read queue length does an incoming req see
system.mem_ctrls0.rdQLenPdf::3                      0                       # What read queue length does an incoming req see
system.mem_ctrls0.rdQLenPdf::4                      0                       # What read queue length does an incoming req see
system.mem_ctrls0.rdQLenPdf::5                      0                       # What read queue length does an incoming req see
system.mem_ctrls0.rdQLenPdf::6                      0                       # What read queue length does an incoming req see
system.mem_ctrls0.rdQLenPdf::7                      0                       # What read queue length does an incoming req see
system.mem_ctrls0.rdQLenPdf::8                      0                       # What read queue length does an incoming req see
system.mem_ctrls0.rdQLenPdf::9                      0                       # What read queue length does an incoming req see
system.mem_ctrls0.rdQLenPdf::10                     0                       # What read queue length does an incoming req see
system.mem_ctrls0.rdQLenPdf::11                     0                       # What read queue length does an incoming req see
system.mem_ctrls0.rdQLenPdf::12                     0                       # What read queue length does an incoming req see
system.mem_ctrls0.rdQLenPdf::13                     0                       # What read queue length does an incoming req see
system.mem_ctrls0.rdQLenPdf::14                     0                       # What read queue length does an incoming req see
system.mem_ctrls0.rdQLenPdf::15                     0                       # What read queue length does an incoming req see
system.mem_ctrls0.rdQLenPdf::16                     0                       # What read queue length does an incoming req see
system.mem_ctrls0.rdQLenPdf::17                     0                       # What read queue length does an incoming req see
system.mem_ctrls0.rdQLenPdf::18                     0                       # What read queue length does an incoming req see
system.mem_ctrls0.rdQLenPdf::19                     0                       # What read queue length does an incoming req see
system.mem_ctrls0.rdQLenPdf::20                     0                       # What read queue length does an incoming req see
system.mem_ctrls0.rdQLenPdf::21                     0                       # What read queue length does an incoming req see
system.mem_ctrls0.rdQLenPdf::22                     0                       # What read queue length does an incoming req see
system.mem_ctrls0.rdQLenPdf::23                     0                       # What read queue length does an incoming req see
system.mem_ctrls0.rdQLenPdf::24                     0                       # What read queue length does an incoming req see
system.mem_ctrls0.rdQLenPdf::25                     0                       # What read queue length does an incoming req see
system.mem_ctrls0.rdQLenPdf::26                     0                       # What read queue length does an incoming req see
system.mem_ctrls0.rdQLenPdf::27                     0                       # What read queue length does an incoming req see
system.mem_ctrls0.rdQLenPdf::28                     0                       # What read queue length does an incoming req see
system.mem_ctrls0.rdQLenPdf::29                     0                       # What read queue length does an incoming req see
system.mem_ctrls0.rdQLenPdf::30                     0                       # What read queue length does an incoming req see
system.mem_ctrls0.rdQLenPdf::31                     0                       # What read queue length does an incoming req see
system.mem_ctrls0.wrQLenPdf::0                      1                       # What write queue length does an incoming req see
system.mem_ctrls0.wrQLenPdf::1                      1                       # What write queue length does an incoming req see
system.mem_ctrls0.wrQLenPdf::2                      1                       # What write queue length does an incoming req see
system.mem_ctrls0.wrQLenPdf::3                      1                       # What write queue length does an incoming req see
system.mem_ctrls0.wrQLenPdf::4                      1                       # What write queue length does an incoming req see
system.mem_ctrls0.wrQLenPdf::5                      1                       # What write queue length does an incoming req see
system.mem_ctrls0.wrQLenPdf::6                      1                       # What write queue length does an incoming req see
system.mem_ctrls0.wrQLenPdf::7                      1                       # What write queue length does an incoming req see
system.mem_ctrls0.wrQLenPdf::8                      1                       # What write queue length does an incoming req see
system.mem_ctrls0.wrQLenPdf::9                      1                       # What write queue length does an incoming req see
system.mem_ctrls0.wrQLenPdf::10                     1                       # What write queue length does an incoming req see
system.mem_ctrls0.wrQLenPdf::11                     1                       # What write queue length does an incoming req see
system.mem_ctrls0.wrQLenPdf::12                     1                       # What write queue length does an incoming req see
system.mem_ctrls0.wrQLenPdf::13                     1                       # What write queue length does an incoming req see
system.mem_ctrls0.wrQLenPdf::14                     1                       # What write queue length does an incoming req see
system.mem_ctrls0.wrQLenPdf::15                 10446                       # What write queue length does an incoming req see
system.mem_ctrls0.wrQLenPdf::16                 10517                       # What write queue length does an incoming req see
system.mem_ctrls0.wrQLenPdf::17                 10799                       # What write queue length does an incoming req see
system.mem_ctrls0.wrQLenPdf::18                 10873                       # What write queue length does an incoming req see
system.mem_ctrls0.wrQLenPdf::19                 10870                       # What write queue length does an incoming req see
system.mem_ctrls0.wrQLenPdf::20                 10875                       # What write queue length does an incoming req see
system.mem_ctrls0.wrQLenPdf::21                 10868                       # What write queue length does an incoming req see
system.mem_ctrls0.wrQLenPdf::22                 10864                       # What write queue length does an incoming req see
system.mem_ctrls0.wrQLenPdf::23                 10870                       # What write queue length does an incoming req see
system.mem_ctrls0.wrQLenPdf::24                 10860                       # What write queue length does an incoming req see
system.mem_ctrls0.wrQLenPdf::25                 10867                       # What write queue length does an incoming req see
system.mem_ctrls0.wrQLenPdf::26                 10873                       # What write queue length does an incoming req see
system.mem_ctrls0.wrQLenPdf::27                 10867                       # What write queue length does an incoming req see
system.mem_ctrls0.wrQLenPdf::28                 10860                       # What write queue length does an incoming req see
system.mem_ctrls0.wrQLenPdf::29                 10871                       # What write queue length does an incoming req see
system.mem_ctrls0.wrQLenPdf::30                 10854                       # What write queue length does an incoming req see
system.mem_ctrls0.wrQLenPdf::31                 10851                       # What write queue length does an incoming req see
system.mem_ctrls0.wrQLenPdf::32                 10851                       # What write queue length does an incoming req see
system.mem_ctrls0.wrQLenPdf::33                    10                       # What write queue length does an incoming req see
system.mem_ctrls0.wrQLenPdf::34                     1                       # What write queue length does an incoming req see
system.mem_ctrls0.wrQLenPdf::35                     1                       # What write queue length does an incoming req see
system.mem_ctrls0.wrQLenPdf::36                     0                       # What write queue length does an incoming req see
system.mem_ctrls0.wrQLenPdf::37                     0                       # What write queue length does an incoming req see
system.mem_ctrls0.wrQLenPdf::38                     0                       # What write queue length does an incoming req see
system.mem_ctrls0.wrQLenPdf::39                     0                       # What write queue length does an incoming req see
system.mem_ctrls0.wrQLenPdf::40                     0                       # What write queue length does an incoming req see
system.mem_ctrls0.wrQLenPdf::41                     0                       # What write queue length does an incoming req see
system.mem_ctrls0.wrQLenPdf::42                     0                       # What write queue length does an incoming req see
system.mem_ctrls0.wrQLenPdf::43                     0                       # What write queue length does an incoming req see
system.mem_ctrls0.wrQLenPdf::44                     0                       # What write queue length does an incoming req see
system.mem_ctrls0.wrQLenPdf::45                     0                       # What write queue length does an incoming req see
system.mem_ctrls0.wrQLenPdf::46                     0                       # What write queue length does an incoming req see
system.mem_ctrls0.wrQLenPdf::47                     0                       # What write queue length does an incoming req see
system.mem_ctrls0.wrQLenPdf::48                     0                       # What write queue length does an incoming req see
system.mem_ctrls0.wrQLenPdf::49                     0                       # What write queue length does an incoming req see
system.mem_ctrls0.wrQLenPdf::50                     0                       # What write queue length does an incoming req see
system.mem_ctrls0.wrQLenPdf::51                     0                       # What write queue length does an incoming req see
system.mem_ctrls0.wrQLenPdf::52                     0                       # What write queue length does an incoming req see
system.mem_ctrls0.wrQLenPdf::53                     0                       # What write queue length does an incoming req see
system.mem_ctrls0.wrQLenPdf::54                     0                       # What write queue length does an incoming req see
system.mem_ctrls0.wrQLenPdf::55                     0                       # What write queue length does an incoming req see
system.mem_ctrls0.wrQLenPdf::56                     0                       # What write queue length does an incoming req see
system.mem_ctrls0.wrQLenPdf::57                     0                       # What write queue length does an incoming req see
system.mem_ctrls0.wrQLenPdf::58                     0                       # What write queue length does an incoming req see
system.mem_ctrls0.wrQLenPdf::59                     0                       # What write queue length does an incoming req see
system.mem_ctrls0.wrQLenPdf::60                     0                       # What write queue length does an incoming req see
system.mem_ctrls0.wrQLenPdf::61                     0                       # What write queue length does an incoming req see
system.mem_ctrls0.wrQLenPdf::62                     0                       # What write queue length does an incoming req see
system.mem_ctrls0.wrQLenPdf::63                     0                       # What write queue length does an incoming req see
system.mem_ctrls0.bytesPerActivate::samples       355535                       # Bytes accessed per row activation
system.mem_ctrls0.bytesPerActivate::mean    99.109230                       # Bytes accessed per row activation
system.mem_ctrls0.bytesPerActivate::gmean    81.974113                       # Bytes accessed per row activation
system.mem_ctrls0.bytesPerActivate::stdev   105.914241                       # Bytes accessed per row activation
system.mem_ctrls0.bytesPerActivate::0-127       267699     75.29%     75.29% # Bytes accessed per row activation
system.mem_ctrls0.bytesPerActivate::128-255        70084     19.71%     95.01% # Bytes accessed per row activation
system.mem_ctrls0.bytesPerActivate::256-383        10172      2.86%     97.87% # Bytes accessed per row activation
system.mem_ctrls0.bytesPerActivate::384-511         3002      0.84%     98.71% # Bytes accessed per row activation
system.mem_ctrls0.bytesPerActivate::512-639          916      0.26%     98.97% # Bytes accessed per row activation
system.mem_ctrls0.bytesPerActivate::640-767          514      0.14%     99.11% # Bytes accessed per row activation
system.mem_ctrls0.bytesPerActivate::768-895          383      0.11%     99.22% # Bytes accessed per row activation
system.mem_ctrls0.bytesPerActivate::896-1023          351      0.10%     99.32% # Bytes accessed per row activation
system.mem_ctrls0.bytesPerActivate::1024-1151         2414      0.68%    100.00% # Bytes accessed per row activation
system.mem_ctrls0.bytesPerActivate::total       355535                       # Bytes accessed per row activation
system.mem_ctrls0.rdPerTurnAround::samples        10851                       # Reads before turning the bus around for writes
system.mem_ctrls0.rdPerTurnAround::mean     33.146069                       # Reads before turning the bus around for writes
system.mem_ctrls0.rdPerTurnAround::stdev    69.928541                       # Reads before turning the bus around for writes
system.mem_ctrls0.rdPerTurnAround::0-255        10845     99.94%     99.94% # Reads before turning the bus around for writes
system.mem_ctrls0.rdPerTurnAround::256-511            2      0.02%     99.96% # Reads before turning the bus around for writes
system.mem_ctrls0.rdPerTurnAround::512-767            1      0.01%     99.97% # Reads before turning the bus around for writes
system.mem_ctrls0.rdPerTurnAround::768-1023            2      0.02%     99.99% # Reads before turning the bus around for writes
system.mem_ctrls0.rdPerTurnAround::6912-7167            1      0.01%    100.00% # Reads before turning the bus around for writes
system.mem_ctrls0.rdPerTurnAround::total        10851                       # Reads before turning the bus around for writes
system.mem_ctrls0.wrPerTurnAround::samples        10851                       # Writes before turning the bus around for reads
system.mem_ctrls0.wrPerTurnAround::mean     17.947378                       # Writes before turning the bus around for reads
system.mem_ctrls0.wrPerTurnAround::gmean    17.942887                       # Writes before turning the bus around for reads
system.mem_ctrls0.wrPerTurnAround::stdev     0.390315                       # Writes before turning the bus around for reads
system.mem_ctrls0.wrPerTurnAround::16             356      3.28%      3.28% # Writes before turning the bus around for reads
system.mem_ctrls0.wrPerTurnAround::17              47      0.43%      3.71% # Writes before turning the bus around for reads
system.mem_ctrls0.wrPerTurnAround::18           10268     94.63%     98.34% # Writes before turning the bus around for reads
system.mem_ctrls0.wrPerTurnAround::19             175      1.61%     99.95% # Writes before turning the bus around for reads
system.mem_ctrls0.wrPerTurnAround::20               3      0.03%     99.98% # Writes before turning the bus around for reads
system.mem_ctrls0.wrPerTurnAround::21               1      0.01%     99.99% # Writes before turning the bus around for reads
system.mem_ctrls0.wrPerTurnAround::22               1      0.01%    100.00% # Writes before turning the bus around for reads
system.mem_ctrls0.wrPerTurnAround::total        10851                       # Writes before turning the bus around for reads
system.mem_ctrls0.totQLat                  4625197500                       # Total ticks spent queuing
system.mem_ctrls0.totMemAccLat            11297028750                       # Total ticks spent from burst creation until serviced by the DRAM
system.mem_ctrls0.totBusLat                1779155000                       # Total ticks spent in databus transfers
system.mem_ctrls0.avgQLat                    12998.30                       # Average queueing delay per DRAM burst
system.mem_ctrls0.avgBusLat                   5000.00                       # Average bus latency per DRAM burst
system.mem_ctrls0.avgMemAccLat               31748.30                       # Average memory access latency per DRAM burst
system.mem_ctrls0.avgRdBW                        5.86                       # Average DRAM read bandwidth in MiByte/s
system.mem_ctrls0.avgWrBW                        3.21                       # Average achieved write bandwidth in MiByte/s
system.mem_ctrls0.avgRdBWSys                     5.88                       # Average system read bandwidth in MiByte/s
system.mem_ctrls0.avgWrBWSys                     3.21                       # Average system write bandwidth in MiByte/s
system.mem_ctrls0.peakBW                     12800.00                       # Theoretical peak bandwidth in MiByte/s
system.mem_ctrls0.busUtil                        0.07                       # Data bus utilization in percentage
system.mem_ctrls0.busUtilRead                    0.05                       # Data bus utilization in percentage for reads
system.mem_ctrls0.busUtilWrite                   0.03                       # Data bus utilization in percentage for writes
system.mem_ctrls0.avgRdQLen                      1.00                       # Average read queue length when enqueuing
system.mem_ctrls0.avgWrQLen                     24.53                       # Average write queue length when enqueuing
system.mem_ctrls0.readRowHits                  131090                       # Number of row buffer hits during reads
system.mem_ctrls0.writeRowHits                  63952                       # Number of row buffer hits during writes
system.mem_ctrls0.readRowHitRate                36.84                       # Row buffer hit rate for reads
system.mem_ctrls0.writeRowHitRate               32.84                       # Row buffer hit rate for writes
system.mem_ctrls0.avgGap                   7041090.23                       # Average gap between requests
system.mem_ctrls0.pageHitRate                   35.42                       # Row buffer hit rate, read and write combined
system.mem_ctrls0_0.actEnergy              1380614760                       # Energy for activate commands per rank (pJ)
system.mem_ctrls0_0.preEnergy               753311625                       # Energy for precharge commands per rank (pJ)
system.mem_ctrls0_0.readEnergy             1425177000                       # Energy for read commands per rank (pJ)
system.mem_ctrls0_0.writeEnergy             647779680                       # Energy for write commands per rank (pJ)
system.mem_ctrls0_0.refreshEnergy        254194561920                       # Energy for refresh commands per rank (pJ)
system.mem_ctrls0_0.actBackEnergy        296432044830                       # Energy for active background per rank (pJ)
system.mem_ctrls0_0.preBackEnergy        2075062192500                       # Energy for precharge background per rank (pJ)
system.mem_ctrls0_0.totalEnergy          2629895682315                       # Total energy per rank (pJ)
system.mem_ctrls0_0.averagePower           675.750059                       # Core power per rank (mW)
system.mem_ctrls0_0.memoryStateTime::IDLE 3448881079500                       # Time in different power states
system.mem_ctrls0_0.memoryStateTime::REF 129841660000                       # Time in different power states
system.mem_ctrls0_0.memoryStateTime::PRE_PDN            0                       # Time in different power states
system.mem_ctrls0_0.memoryStateTime::ACT 309660184500                       # Time in different power states
system.mem_ctrls0_0.memoryStateTime::ACT_PDN            0                       # Time in different power states
system.mem_ctrls0_1.actEnergy              1318947840                       # Energy for activate commands per rank (pJ)
system.mem_ctrls0_1.preEnergy               719664000                       # Energy for precharge commands per rank (pJ)
system.mem_ctrls0_1.readEnergy             1380233400                       # Energy for read commands per rank (pJ)
system.mem_ctrls0_1.writeEnergy             614180880                       # Energy for write commands per rank (pJ)
system.mem_ctrls0_1.refreshEnergy        254194561920                       # Energy for refresh commands per rank (pJ)
system.mem_ctrls0_1.actBackEnergy        290411135685                       # Energy for active background per rank (pJ)
system.mem_ctrls0_1.preBackEnergy        2080343691750                       # Energy for precharge background per rank (pJ)
system.mem_ctrls0_1.totalEnergy          2628982415475                       # Total energy per rank (pJ)
system.mem_ctrls0_1.averagePower           675.515396                       # Core power per rank (mW)
system.mem_ctrls0_1.memoryStateTime::IDLE 3457805362250                       # Time in different power states
system.mem_ctrls0_1.memoryStateTime::REF 129841660000                       # Time in different power states
system.mem_ctrls0_1.memoryStateTime::PRE_PDN            0                       # Time in different power states
system.mem_ctrls0_1.memoryStateTime::ACT 300737451750                       # Time in different power states
system.mem_ctrls0_1.memoryStateTime::ACT_PDN            0                       # Time in different power states
system.mem_ctrls1.bytes_read::ruby.dir_cntrl1     22777792                       # Number of bytes read from this memory
system.mem_ctrls1.bytes_read::total          22777792                       # Number of bytes read from this memory
system.mem_ctrls1.bytes_written::ruby.dir_cntrl1     12440000                       # Number of bytes written to this memory
system.mem_ctrls1.bytes_written::total       12440000                       # Number of bytes written to this memory
system.mem_ctrls1.num_reads::ruby.dir_cntrl1       355903                       # Number of read requests responded to by this memory
system.mem_ctrls1.num_reads::total             355903                       # Number of read requests responded to by this memory
system.mem_ctrls1.num_writes::ruby.dir_cntrl1       194375                       # Number of write requests responded to by this memory
system.mem_ctrls1.num_writes::total            194375                       # Number of write requests responded to by this memory
system.mem_ctrls1.bw_read::ruby.dir_cntrl1      5857904                       # Total read bandwidth from this memory (bytes/s)
system.mem_ctrls1.bw_read::total              5857904                       # Total read bandwidth from this memory (bytes/s)
system.mem_ctrls1.bw_write::ruby.dir_cntrl1      3199271                       # Write bandwidth from this memory (bytes/s)
system.mem_ctrls1.bw_write::total             3199271                       # Write bandwidth from this memory (bytes/s)
system.mem_ctrls1.bw_total::ruby.dir_cntrl1      9057175                       # Total bandwidth to/from this memory (bytes/s)
system.mem_ctrls1.bw_total::total             9057175                       # Total bandwidth to/from this memory (bytes/s)
system.mem_ctrls1.readReqs                     355903                       # Number of read requests accepted
system.mem_ctrls1.writeReqs                    194375                       # Number of write requests accepted
system.mem_ctrls1.readBursts                   355903                       # Number of DRAM read bursts, including those serviced by the write queue
system.mem_ctrls1.writeBursts                  194375                       # Number of DRAM write bursts, including those merged in the write queue
system.mem_ctrls1.bytesReadDRAM              22673664                       # Total number of bytes read from DRAM
system.mem_ctrls1.bytesReadWrQ                 104128                       # Total number of bytes read from write queue
system.mem_ctrls1.bytesWritten               12438848                       # Total number of bytes written to DRAM
system.mem_ctrls1.bytesReadSys               22777792                       # Total read bytes from the system interface side
system.mem_ctrls1.bytesWrittenSys            12440000                       # Total written bytes from the system interface side
system.mem_ctrls1.servicedByWrQ                  1627                       # Number of DRAM read bursts serviced by the write queue
system.mem_ctrls1.mergedWrBursts                    1                       # Number of DRAM write bursts merged with an existing one
system.mem_ctrls1.neitherReadNorWriteReqs            0                       # Number of requests that are neither read nor write
system.mem_ctrls1.perBankRdBursts::0            25015                       # Per bank write bursts
system.mem_ctrls1.perBankRdBursts::1            26366                       # Per bank write bursts
system.mem_ctrls1.perBankRdBursts::2            26655                       # Per bank write bursts
system.mem_ctrls1.perBankRdBursts::3            21229                       # Per bank write bursts
system.mem_ctrls1.perBankRdBursts::4            19680                       # Per bank write bursts
system.mem_ctrls1.perBankRdBursts::5            19915                       # Per bank write bursts
system.mem_ctrls1.perBankRdBursts::6            19025                       # Per bank write bursts
system.mem_ctrls1.perBankRdBursts::7            21414                       # Per bank write bursts
system.mem_ctrls1.perBankRdBursts::8            20799                       # Per bank write bursts
system.mem_ctrls1.perBankRdBursts::9            23664                       # Per bank write bursts
system.mem_ctrls1.perBankRdBursts::10           23838                       # Per bank write bursts
system.mem_ctrls1.perBankRdBursts::11           21062                       # Per bank write bursts
system.mem_ctrls1.perBankRdBursts::12           20649                       # Per bank write bursts
system.mem_ctrls1.perBankRdBursts::13           20237                       # Per bank write bursts
system.mem_ctrls1.perBankRdBursts::14           20267                       # Per bank write bursts
system.mem_ctrls1.perBankRdBursts::15           24461                       # Per bank write bursts
system.mem_ctrls1.perBankWrBursts::0            14051                       # Per bank write bursts
system.mem_ctrls1.perBankWrBursts::1            14125                       # Per bank write bursts
system.mem_ctrls1.perBankWrBursts::2            14010                       # Per bank write bursts
system.mem_ctrls1.perBankWrBursts::3            12093                       # Per bank write bursts
system.mem_ctrls1.perBankWrBursts::4            11159                       # Per bank write bursts
system.mem_ctrls1.perBankWrBursts::5            11152                       # Per bank write bursts
system.mem_ctrls1.perBankWrBursts::6            10819                       # Per bank write bursts
system.mem_ctrls1.perBankWrBursts::7            12031                       # Per bank write bursts
system.mem_ctrls1.perBankWrBursts::8            11142                       # Per bank write bursts
system.mem_ctrls1.perBankWrBursts::9            12662                       # Per bank write bursts
system.mem_ctrls1.perBankWrBursts::10           12140                       # Per bank write bursts
system.mem_ctrls1.perBankWrBursts::11           11613                       # Per bank write bursts
system.mem_ctrls1.perBankWrBursts::12           11350                       # Per bank write bursts
system.mem_ctrls1.perBankWrBursts::13           11640                       # Per bank write bursts
system.mem_ctrls1.perBankWrBursts::14           11243                       # Per bank write bursts
system.mem_ctrls1.perBankWrBursts::15           13127                       # Per bank write bursts
system.mem_ctrls1.numRdRetry                        0                       # Number of times read queue was full causing retry
system.mem_ctrls1.numWrRetry                        0                       # Number of times write queue was full causing retry
system.mem_ctrls1.totGap                 3888387141500                       # Total gap between requests
system.mem_ctrls1.readPktSize::0                    0                       # Read request sizes (log2)
system.mem_ctrls1.readPktSize::1                    0                       # Read request sizes (log2)
system.mem_ctrls1.readPktSize::2                    0                       # Read request sizes (log2)
system.mem_ctrls1.readPktSize::3                    0                       # Read request sizes (log2)
system.mem_ctrls1.readPktSize::4                    0                       # Read request sizes (log2)
system.mem_ctrls1.readPktSize::5                    0                       # Read request sizes (log2)
system.mem_ctrls1.readPktSize::6               355903                       # Read request sizes (log2)
system.mem_ctrls1.writePktSize::0                   0                       # Write request sizes (log2)
system.mem_ctrls1.writePktSize::1                   0                       # Write request sizes (log2)
system.mem_ctrls1.writePktSize::2                   0                       # Write request sizes (log2)
system.mem_ctrls1.writePktSize::3                   0                       # Write request sizes (log2)
system.mem_ctrls1.writePktSize::4                   0                       # Write request sizes (log2)
system.mem_ctrls1.writePktSize::5                   0                       # Write request sizes (log2)
system.mem_ctrls1.writePktSize::6              194375                       # Write request sizes (log2)
system.mem_ctrls1.rdQLenPdf::0                 354236                       # What read queue length does an incoming req see
system.mem_ctrls1.rdQLenPdf::1                     40                       # What read queue length does an incoming req see
system.mem_ctrls1.rdQLenPdf::2                      0                       # What read queue length does an incoming req see
system.mem_ctrls1.rdQLenPdf::3                      0                       # What read queue length does an incoming req see
system.mem_ctrls1.rdQLenPdf::4                      0                       # What read queue length does an incoming req see
system.mem_ctrls1.rdQLenPdf::5                      0                       # What read queue length does an incoming req see
system.mem_ctrls1.rdQLenPdf::6                      0                       # What read queue length does an incoming req see
system.mem_ctrls1.rdQLenPdf::7                      0                       # What read queue length does an incoming req see
system.mem_ctrls1.rdQLenPdf::8                      0                       # What read queue length does an incoming req see
system.mem_ctrls1.rdQLenPdf::9                      0                       # What read queue length does an incoming req see
system.mem_ctrls1.rdQLenPdf::10                     0                       # What read queue length does an incoming req see
system.mem_ctrls1.rdQLenPdf::11                     0                       # What read queue length does an incoming req see
system.mem_ctrls1.rdQLenPdf::12                     0                       # What read queue length does an incoming req see
system.mem_ctrls1.rdQLenPdf::13                     0                       # What read queue length does an incoming req see
system.mem_ctrls1.rdQLenPdf::14                     0                       # What read queue length does an incoming req see
system.mem_ctrls1.rdQLenPdf::15                     0                       # What read queue length does an incoming req see
system.mem_ctrls1.rdQLenPdf::16                     0                       # What read queue length does an incoming req see
system.mem_ctrls1.rdQLenPdf::17                     0                       # What read queue length does an incoming req see
system.mem_ctrls1.rdQLenPdf::18                     0                       # What read queue length does an incoming req see
system.mem_ctrls1.rdQLenPdf::19                     0                       # What read queue length does an incoming req see
system.mem_ctrls1.rdQLenPdf::20                     0                       # What read queue length does an incoming req see
system.mem_ctrls1.rdQLenPdf::21                     0                       # What read queue length does an incoming req see
system.mem_ctrls1.rdQLenPdf::22                     0                       # What read queue length does an incoming req see
system.mem_ctrls1.rdQLenPdf::23                     0                       # What read queue length does an incoming req see
system.mem_ctrls1.rdQLenPdf::24                     0                       # What read queue length does an incoming req see
system.mem_ctrls1.rdQLenPdf::25                     0                       # What read queue length does an incoming req see
system.mem_ctrls1.rdQLenPdf::26                     0                       # What read queue length does an incoming req see
system.mem_ctrls1.rdQLenPdf::27                     0                       # What read queue length does an incoming req see
system.mem_ctrls1.rdQLenPdf::28                     0                       # What read queue length does an incoming req see
system.mem_ctrls1.rdQLenPdf::29                     0                       # What read queue length does an incoming req see
system.mem_ctrls1.rdQLenPdf::30                     0                       # What read queue length does an incoming req see
system.mem_ctrls1.rdQLenPdf::31                     0                       # What read queue length does an incoming req see
system.mem_ctrls1.wrQLenPdf::0                      1                       # What write queue length does an incoming req see
system.mem_ctrls1.wrQLenPdf::1                      1                       # What write queue length does an incoming req see
system.mem_ctrls1.wrQLenPdf::2                      1                       # What write queue length does an incoming req see
system.mem_ctrls1.wrQLenPdf::3                      1                       # What write queue length does an incoming req see
system.mem_ctrls1.wrQLenPdf::4                      1                       # What write queue length does an incoming req see
system.mem_ctrls1.wrQLenPdf::5                      1                       # What write queue length does an incoming req see
system.mem_ctrls1.wrQLenPdf::6                      1                       # What write queue length does an incoming req see
system.mem_ctrls1.wrQLenPdf::7                      1                       # What write queue length does an incoming req see
system.mem_ctrls1.wrQLenPdf::8                      1                       # What write queue length does an incoming req see
system.mem_ctrls1.wrQLenPdf::9                      1                       # What write queue length does an incoming req see
system.mem_ctrls1.wrQLenPdf::10                     1                       # What write queue length does an incoming req see
system.mem_ctrls1.wrQLenPdf::11                     1                       # What write queue length does an incoming req see
system.mem_ctrls1.wrQLenPdf::12                     1                       # What write queue length does an incoming req see
system.mem_ctrls1.wrQLenPdf::13                     1                       # What write queue length does an incoming req see
system.mem_ctrls1.wrQLenPdf::14                     1                       # What write queue length does an incoming req see
system.mem_ctrls1.wrQLenPdf::15                 10435                       # What write queue length does an incoming req see
system.mem_ctrls1.wrQLenPdf::16                 10506                       # What write queue length does an incoming req see
system.mem_ctrls1.wrQLenPdf::17                 10772                       # What write queue length does an incoming req see
system.mem_ctrls1.wrQLenPdf::18                 10859                       # What write queue length does an incoming req see
system.mem_ctrls1.wrQLenPdf::19                 10849                       # What write queue length does an incoming req see
system.mem_ctrls1.wrQLenPdf::20                 10848                       # What write queue length does an incoming req see
system.mem_ctrls1.wrQLenPdf::21                 10841                       # What write queue length does an incoming req see
system.mem_ctrls1.wrQLenPdf::22                 10843                       # What write queue length does an incoming req see
system.mem_ctrls1.wrQLenPdf::23                 10842                       # What write queue length does an incoming req see
system.mem_ctrls1.wrQLenPdf::24                 10848                       # What write queue length does an incoming req see
system.mem_ctrls1.wrQLenPdf::25                 10847                       # What write queue length does an incoming req see
system.mem_ctrls1.wrQLenPdf::26                 10843                       # What write queue length does an incoming req see
system.mem_ctrls1.wrQLenPdf::27                 10842                       # What write queue length does an incoming req see
system.mem_ctrls1.wrQLenPdf::28                 10844                       # What write queue length does an incoming req see
system.mem_ctrls1.wrQLenPdf::29                 10846                       # What write queue length does an incoming req see
system.mem_ctrls1.wrQLenPdf::30                 10828                       # What write queue length does an incoming req see
system.mem_ctrls1.wrQLenPdf::31                 10828                       # What write queue length does an incoming req see
system.mem_ctrls1.wrQLenPdf::32                 10831                       # What write queue length does an incoming req see
system.mem_ctrls1.wrQLenPdf::33                     6                       # What write queue length does an incoming req see
system.mem_ctrls1.wrQLenPdf::34                     1                       # What write queue length does an incoming req see
system.mem_ctrls1.wrQLenPdf::35                     0                       # What write queue length does an incoming req see
system.mem_ctrls1.wrQLenPdf::36                     0                       # What write queue length does an incoming req see
system.mem_ctrls1.wrQLenPdf::37                     0                       # What write queue length does an incoming req see
system.mem_ctrls1.wrQLenPdf::38                     0                       # What write queue length does an incoming req see
system.mem_ctrls1.wrQLenPdf::39                     0                       # What write queue length does an incoming req see
system.mem_ctrls1.wrQLenPdf::40                     0                       # What write queue length does an incoming req see
system.mem_ctrls1.wrQLenPdf::41                     0                       # What write queue length does an incoming req see
system.mem_ctrls1.wrQLenPdf::42                     0                       # What write queue length does an incoming req see
system.mem_ctrls1.wrQLenPdf::43                     0                       # What write queue length does an incoming req see
system.mem_ctrls1.wrQLenPdf::44                     0                       # What write queue length does an incoming req see
system.mem_ctrls1.wrQLenPdf::45                     0                       # What write queue length does an incoming req see
system.mem_ctrls1.wrQLenPdf::46                     0                       # What write queue length does an incoming req see
system.mem_ctrls1.wrQLenPdf::47                     0                       # What write queue length does an incoming req see
system.mem_ctrls1.wrQLenPdf::48                     0                       # What write queue length does an incoming req see
system.mem_ctrls1.wrQLenPdf::49                     0                       # What write queue length does an incoming req see
system.mem_ctrls1.wrQLenPdf::50                     0                       # What write queue length does an incoming req see
system.mem_ctrls1.wrQLenPdf::51                     0                       # What write queue length does an incoming req see
system.mem_ctrls1.wrQLenPdf::52                     0                       # What write queue length does an incoming req see
system.mem_ctrls1.wrQLenPdf::53                     0                       # What write queue length does an incoming req see
system.mem_ctrls1.wrQLenPdf::54                     0                       # What write queue length does an incoming req see
system.mem_ctrls1.wrQLenPdf::55                     0                       # What write queue length does an incoming req see
system.mem_ctrls1.wrQLenPdf::56                     0                       # What write queue length does an incoming req see
system.mem_ctrls1.wrQLenPdf::57                     0                       # What write queue length does an incoming req see
system.mem_ctrls1.wrQLenPdf::58                     0                       # What write queue length does an incoming req see
system.mem_ctrls1.wrQLenPdf::59                     0                       # What write queue length does an incoming req see
system.mem_ctrls1.wrQLenPdf::60                     0                       # What write queue length does an incoming req see
system.mem_ctrls1.wrQLenPdf::61                     0                       # What write queue length does an incoming req see
system.mem_ctrls1.wrQLenPdf::62                     0                       # What write queue length does an incoming req see
system.mem_ctrls1.wrQLenPdf::63                     0                       # What write queue length does an incoming req see
system.mem_ctrls1.bytesPerActivate::samples       354606                       # Bytes accessed per row activation
system.mem_ctrls1.bytesPerActivate::mean    99.016937                       # Bytes accessed per row activation
system.mem_ctrls1.bytesPerActivate::gmean    81.851018                       # Bytes accessed per row activation
system.mem_ctrls1.bytesPerActivate::stdev   106.370497                       # Bytes accessed per row activation
system.mem_ctrls1.bytesPerActivate::0-127       267716     75.50%     75.50% # Bytes accessed per row activation
system.mem_ctrls1.bytesPerActivate::128-255        69269     19.53%     95.03% # Bytes accessed per row activation
system.mem_ctrls1.bytesPerActivate::256-383        10084      2.84%     97.87% # Bytes accessed per row activation
system.mem_ctrls1.bytesPerActivate::384-511         2948      0.83%     98.71% # Bytes accessed per row activation
system.mem_ctrls1.bytesPerActivate::512-639          870      0.25%     98.95% # Bytes accessed per row activation
system.mem_ctrls1.bytesPerActivate::640-767          528      0.15%     99.10% # Bytes accessed per row activation
system.mem_ctrls1.bytesPerActivate::768-895          388      0.11%     99.21% # Bytes accessed per row activation
system.mem_ctrls1.bytesPerActivate::896-1023          348      0.10%     99.31% # Bytes accessed per row activation
system.mem_ctrls1.bytesPerActivate::1024-1151         2455      0.69%    100.00% # Bytes accessed per row activation
system.mem_ctrls1.bytesPerActivate::total       354606                       # Bytes accessed per row activation
system.mem_ctrls1.rdPerTurnAround::samples        10828                       # Reads before turning the bus around for writes
system.mem_ctrls1.rdPerTurnAround::mean     33.073698                       # Reads before turning the bus around for writes
system.mem_ctrls1.rdPerTurnAround::stdev    69.655842                       # Reads before turning the bus around for writes
system.mem_ctrls1.rdPerTurnAround::0-255        10824     99.96%     99.96% # Reads before turning the bus around for writes
system.mem_ctrls1.rdPerTurnAround::512-767            2      0.02%     99.98% # Reads before turning the bus around for writes
system.mem_ctrls1.rdPerTurnAround::768-1023            1      0.01%     99.99% # Reads before turning the bus around for writes
system.mem_ctrls1.rdPerTurnAround::6912-7167            1      0.01%    100.00% # Reads before turning the bus around for writes
system.mem_ctrls1.rdPerTurnAround::total        10828                       # Reads before turning the bus around for writes
system.mem_ctrls1.wrPerTurnAround::samples        10828                       # Writes before turning the bus around for reads
system.mem_ctrls1.wrPerTurnAround::mean     17.949483                       # Writes before turning the bus around for reads
system.mem_ctrls1.wrPerTurnAround::gmean    17.945176                       # Writes before turning the bus around for reads
system.mem_ctrls1.wrPerTurnAround::stdev     0.382175                       # Writes before turning the bus around for reads
system.mem_ctrls1.wrPerTurnAround::16             338      3.12%      3.12% # Writes before turning the bus around for reads
system.mem_ctrls1.wrPerTurnAround::17              52      0.48%      3.60% # Writes before turning the bus around for reads
system.mem_ctrls1.wrPerTurnAround::18           10269     94.84%     98.44% # Writes before turning the bus around for reads
system.mem_ctrls1.wrPerTurnAround::19             157      1.45%     99.89% # Writes before turning the bus around for reads
system.mem_ctrls1.wrPerTurnAround::20              12      0.11%    100.00% # Writes before turning the bus around for reads
system.mem_ctrls1.wrPerTurnAround::total        10828                       # Writes before turning the bus around for reads
system.mem_ctrls1.totQLat                  4567340999                       # Total ticks spent queuing
system.mem_ctrls1.totMemAccLat            11210015999                       # Total ticks spent from burst creation until serviced by the DRAM
system.mem_ctrls1.totBusLat                1771380000                       # Total ticks spent in databus transfers
system.mem_ctrls1.avgQLat                    12892.04                       # Average queueing delay per DRAM burst
system.mem_ctrls1.avgBusLat                   5000.00                       # Average bus latency per DRAM burst
system.mem_ctrls1.avgMemAccLat               31642.04                       # Average memory access latency per DRAM burst
system.mem_ctrls1.avgRdBW                        5.83                       # Average DRAM read bandwidth in MiByte/s
system.mem_ctrls1.avgWrBW                        3.20                       # Average achieved write bandwidth in MiByte/s
system.mem_ctrls1.avgRdBWSys                     5.86                       # Average system read bandwidth in MiByte/s
system.mem_ctrls1.avgWrBWSys                     3.20                       # Average system write bandwidth in MiByte/s
system.mem_ctrls1.peakBW                     12800.00                       # Theoretical peak bandwidth in MiByte/s
system.mem_ctrls1.busUtil                        0.07                       # Data bus utilization in percentage
system.mem_ctrls1.busUtilRead                    0.05                       # Data bus utilization in percentage for reads
system.mem_ctrls1.busUtilWrite                   0.02                       # Data bus utilization in percentage for writes
system.mem_ctrls1.avgRdQLen                      1.00                       # Average read queue length when enqueuing
system.mem_ctrls1.avgWrQLen                     24.50                       # Average write queue length when enqueuing
system.mem_ctrls1.readRowHits                  130217                       # Number of row buffer hits during reads
system.mem_ctrls1.writeRowHits                  63804                       # Number of row buffer hits during writes
system.mem_ctrls1.readRowHitRate                36.76                       # Row buffer hit rate for reads
system.mem_ctrls1.writeRowHitRate               32.83                       # Row buffer hit rate for writes
system.mem_ctrls1.avgGap                   7066223.15                       # Average gap between requests
system.mem_ctrls1.pageHitRate                   35.36                       # Row buffer hit rate, read and write combined
system.mem_ctrls1_0.actEnergy              1372480200                       # Energy for activate commands per rank (pJ)
system.mem_ctrls1_0.preEnergy               748873125                       # Energy for precharge commands per rank (pJ)
system.mem_ctrls1_0.readEnergy             1413219600                       # Energy for read commands per rank (pJ)
system.mem_ctrls1_0.writeEnergy             644299920                       # Energy for write commands per rank (pJ)
system.mem_ctrls1_0.refreshEnergy        254194561920                       # Energy for refresh commands per rank (pJ)
system.mem_ctrls1_0.actBackEnergy        295039264365                       # Energy for active background per rank (pJ)
system.mem_ctrls1_0.preBackEnergy        2076283929750                       # Energy for precharge background per rank (pJ)
system.mem_ctrls1_0.totalEnergy          2629696628880                       # Total energy per rank (pJ)
system.mem_ctrls1_0.averagePower           675.698912                       # Core power per rank (mW)
system.mem_ctrls1_0.memoryStateTime::IDLE 3450887057500                       # Time in different power states
system.mem_ctrls1_0.memoryStateTime::REF 129841660000                       # Time in different power states
system.mem_ctrls1_0.memoryStateTime::PRE_PDN            0                       # Time in different power states
system.mem_ctrls1_0.memoryStateTime::ACT 307654657500                       # Time in different power states
system.mem_ctrls1_0.memoryStateTime::ACT_PDN            0                       # Time in different power states
system.mem_ctrls1_1.actEnergy              1320081840                       # Energy for activate commands per rank (pJ)
system.mem_ctrls1_1.preEnergy               720282750                       # Energy for precharge commands per rank (pJ)
system.mem_ctrls1_1.readEnergy             1380124200                       # Energy for read commands per rank (pJ)
system.mem_ctrls1_1.writeEnergy             615016800                       # Energy for write commands per rank (pJ)
system.mem_ctrls1_1.refreshEnergy        254194561920                       # Energy for refresh commands per rank (pJ)
system.mem_ctrls1_1.actBackEnergy        290368383120                       # Energy for active background per rank (pJ)
system.mem_ctrls1_1.preBackEnergy        2080381209750                       # Energy for precharge background per rank (pJ)
system.mem_ctrls1_1.totalEnergy          2628979660380                       # Total energy per rank (pJ)
system.mem_ctrls1_1.averagePower           675.514683                       # Core power per rank (mW)
system.mem_ctrls1_1.memoryStateTime::IDLE 3457853625000                       # Time in different power states
system.mem_ctrls1_1.memoryStateTime::REF 129841660000                       # Time in different power states
system.mem_ctrls1_1.memoryStateTime::PRE_PDN            0                       # Time in different power states
system.mem_ctrls1_1.memoryStateTime::ACT 300688102000                       # Time in different power states
system.mem_ctrls1_1.memoryStateTime::ACT_PDN            0                       # Time in different power states
system.mem_ctrls2.bytes_read::ruby.dir_cntrl2     22803328                       # Number of bytes read from this memory
system.mem_ctrls2.bytes_read::total          22803328                       # Number of bytes read from this memory
system.mem_ctrls2.bytes_written::ruby.dir_cntrl2     12441536                       # Number of bytes written to this memory
system.mem_ctrls2.bytes_written::total       12441536                       # Number of bytes written to this memory
system.mem_ctrls2.num_reads::ruby.dir_cntrl2       356302                       # Number of read requests responded to by this memory
system.mem_ctrls2.num_reads::total             356302                       # Number of read requests responded to by this memory
system.mem_ctrls2.num_writes::ruby.dir_cntrl2       194399                       # Number of write requests responded to by this memory
system.mem_ctrls2.num_writes::total            194399                       # Number of write requests responded to by this memory
system.mem_ctrls2.bw_read::ruby.dir_cntrl2      5864471                       # Total read bandwidth from this memory (bytes/s)
system.mem_ctrls2.bw_read::total              5864471                       # Total read bandwidth from this memory (bytes/s)
system.mem_ctrls2.bw_write::ruby.dir_cntrl2      3199666                       # Write bandwidth from this memory (bytes/s)
system.mem_ctrls2.bw_write::total             3199666                       # Write bandwidth from this memory (bytes/s)
system.mem_ctrls2.bw_total::ruby.dir_cntrl2      9064137                       # Total bandwidth to/from this memory (bytes/s)
system.mem_ctrls2.bw_total::total             9064137                       # Total bandwidth to/from this memory (bytes/s)
system.mem_ctrls2.readReqs                     356302                       # Number of read requests accepted
system.mem_ctrls2.writeReqs                    194399                       # Number of write requests accepted
system.mem_ctrls2.readBursts                   356302                       # Number of DRAM read bursts, including those serviced by the write queue
system.mem_ctrls2.writeBursts                  194399                       # Number of DRAM write bursts, including those merged in the write queue
system.mem_ctrls2.bytesReadDRAM              22701824                       # Total number of bytes read from DRAM
system.mem_ctrls2.bytesReadWrQ                 101504                       # Total number of bytes read from write queue
system.mem_ctrls2.bytesWritten               12440256                       # Total number of bytes written to DRAM
system.mem_ctrls2.bytesReadSys               22803328                       # Total read bytes from the system interface side
system.mem_ctrls2.bytesWrittenSys            12441536                       # Total written bytes from the system interface side
system.mem_ctrls2.servicedByWrQ                  1586                       # Number of DRAM read bursts serviced by the write queue
system.mem_ctrls2.mergedWrBursts                    0                       # Number of DRAM write bursts merged with an existing one
system.mem_ctrls2.neitherReadNorWriteReqs            0                       # Number of requests that are neither read nor write
system.mem_ctrls2.perBankRdBursts::0            25104                       # Per bank write bursts
system.mem_ctrls2.perBankRdBursts::1            26650                       # Per bank write bursts
system.mem_ctrls2.perBankRdBursts::2            26809                       # Per bank write bursts
system.mem_ctrls2.perBankRdBursts::3            21037                       # Per bank write bursts
system.mem_ctrls2.perBankRdBursts::4            20018                       # Per bank write bursts
system.mem_ctrls2.perBankRdBursts::5            19955                       # Per bank write bursts
system.mem_ctrls2.perBankRdBursts::6            18760                       # Per bank write bursts
system.mem_ctrls2.perBankRdBursts::7            21655                       # Per bank write bursts
system.mem_ctrls2.perBankRdBursts::8            20715                       # Per bank write bursts
system.mem_ctrls2.perBankRdBursts::9            23733                       # Per bank write bursts
system.mem_ctrls2.perBankRdBursts::10           23863                       # Per bank write bursts
system.mem_ctrls2.perBankRdBursts::11           21099                       # Per bank write bursts
system.mem_ctrls2.perBankRdBursts::12           20284                       # Per bank write bursts
system.mem_ctrls2.perBankRdBursts::13           20630                       # Per bank write bursts
system.mem_ctrls2.perBankRdBursts::14           19990                       # Per bank write bursts
system.mem_ctrls2.perBankRdBursts::15           24414                       # Per bank write bursts
system.mem_ctrls2.perBankWrBursts::0            13989                       # Per bank write bursts
system.mem_ctrls2.perBankWrBursts::1            14118                       # Per bank write bursts
system.mem_ctrls2.perBankWrBursts::2            14154                       # Per bank write bursts
system.mem_ctrls2.perBankWrBursts::3            11933                       # Per bank write bursts
system.mem_ctrls2.perBankWrBursts::4            11274                       # Per bank write bursts
system.mem_ctrls2.perBankWrBursts::5            11229                       # Per bank write bursts
system.mem_ctrls2.perBankWrBursts::6            10653                       # Per bank write bursts
system.mem_ctrls2.perBankWrBursts::7            12051                       # Per bank write bursts
system.mem_ctrls2.perBankWrBursts::8            11293                       # Per bank write bursts
system.mem_ctrls2.perBankWrBursts::9            12637                       # Per bank write bursts
system.mem_ctrls2.perBankWrBursts::10           12167                       # Per bank write bursts
system.mem_ctrls2.perBankWrBursts::11           11585                       # Per bank write bursts
system.mem_ctrls2.perBankWrBursts::12           11282                       # Per bank write bursts
system.mem_ctrls2.perBankWrBursts::13           11647                       # Per bank write bursts
system.mem_ctrls2.perBankWrBursts::14           11176                       # Per bank write bursts
system.mem_ctrls2.perBankWrBursts::15           13191                       # Per bank write bursts
system.mem_ctrls2.numRdRetry                        0                       # Number of times read queue was full causing retry
system.mem_ctrls2.numWrRetry                        0                       # Number of times write queue was full causing retry
system.mem_ctrls2.totGap                 3888391513000                       # Total gap between requests
system.mem_ctrls2.readPktSize::0                    0                       # Read request sizes (log2)
system.mem_ctrls2.readPktSize::1                    0                       # Read request sizes (log2)
system.mem_ctrls2.readPktSize::2                    0                       # Read request sizes (log2)
system.mem_ctrls2.readPktSize::3                    0                       # Read request sizes (log2)
system.mem_ctrls2.readPktSize::4                    0                       # Read request sizes (log2)
system.mem_ctrls2.readPktSize::5                    0                       # Read request sizes (log2)
system.mem_ctrls2.readPktSize::6               356302                       # Read request sizes (log2)
system.mem_ctrls2.writePktSize::0                   0                       # Write request sizes (log2)
system.mem_ctrls2.writePktSize::1                   0                       # Write request sizes (log2)
system.mem_ctrls2.writePktSize::2                   0                       # Write request sizes (log2)
system.mem_ctrls2.writePktSize::3                   0                       # Write request sizes (log2)
system.mem_ctrls2.writePktSize::4                   0                       # Write request sizes (log2)
system.mem_ctrls2.writePktSize::5                   0                       # Write request sizes (log2)
system.mem_ctrls2.writePktSize::6              194399                       # Write request sizes (log2)
system.mem_ctrls2.rdQLenPdf::0                 354671                       # What read queue length does an incoming req see
system.mem_ctrls2.rdQLenPdf::1                     45                       # What read queue length does an incoming req see
system.mem_ctrls2.rdQLenPdf::2                      0                       # What read queue length does an incoming req see
system.mem_ctrls2.rdQLenPdf::3                      0                       # What read queue length does an incoming req see
system.mem_ctrls2.rdQLenPdf::4                      0                       # What read queue length does an incoming req see
system.mem_ctrls2.rdQLenPdf::5                      0                       # What read queue length does an incoming req see
system.mem_ctrls2.rdQLenPdf::6                      0                       # What read queue length does an incoming req see
system.mem_ctrls2.rdQLenPdf::7                      0                       # What read queue length does an incoming req see
system.mem_ctrls2.rdQLenPdf::8                      0                       # What read queue length does an incoming req see
system.mem_ctrls2.rdQLenPdf::9                      0                       # What read queue length does an incoming req see
system.mem_ctrls2.rdQLenPdf::10                     0                       # What read queue length does an incoming req see
system.mem_ctrls2.rdQLenPdf::11                     0                       # What read queue length does an incoming req see
system.mem_ctrls2.rdQLenPdf::12                     0                       # What read queue length does an incoming req see
system.mem_ctrls2.rdQLenPdf::13                     0                       # What read queue length does an incoming req see
system.mem_ctrls2.rdQLenPdf::14                     0                       # What read queue length does an incoming req see
system.mem_ctrls2.rdQLenPdf::15                     0                       # What read queue length does an incoming req see
system.mem_ctrls2.rdQLenPdf::16                     0                       # What read queue length does an incoming req see
system.mem_ctrls2.rdQLenPdf::17                     0                       # What read queue length does an incoming req see
system.mem_ctrls2.rdQLenPdf::18                     0                       # What read queue length does an incoming req see
system.mem_ctrls2.rdQLenPdf::19                     0                       # What read queue length does an incoming req see
system.mem_ctrls2.rdQLenPdf::20                     0                       # What read queue length does an incoming req see
system.mem_ctrls2.rdQLenPdf::21                     0                       # What read queue length does an incoming req see
system.mem_ctrls2.rdQLenPdf::22                     0                       # What read queue length does an incoming req see
system.mem_ctrls2.rdQLenPdf::23                     0                       # What read queue length does an incoming req see
system.mem_ctrls2.rdQLenPdf::24                     0                       # What read queue length does an incoming req see
system.mem_ctrls2.rdQLenPdf::25                     0                       # What read queue length does an incoming req see
system.mem_ctrls2.rdQLenPdf::26                     0                       # What read queue length does an incoming req see
system.mem_ctrls2.rdQLenPdf::27                     0                       # What read queue length does an incoming req see
system.mem_ctrls2.rdQLenPdf::28                     0                       # What read queue length does an incoming req see
system.mem_ctrls2.rdQLenPdf::29                     0                       # What read queue length does an incoming req see
system.mem_ctrls2.rdQLenPdf::30                     0                       # What read queue length does an incoming req see
system.mem_ctrls2.rdQLenPdf::31                     0                       # What read queue length does an incoming req see
system.mem_ctrls2.wrQLenPdf::0                      1                       # What write queue length does an incoming req see
system.mem_ctrls2.wrQLenPdf::1                      1                       # What write queue length does an incoming req see
system.mem_ctrls2.wrQLenPdf::2                      1                       # What write queue length does an incoming req see
system.mem_ctrls2.wrQLenPdf::3                      1                       # What write queue length does an incoming req see
system.mem_ctrls2.wrQLenPdf::4                      1                       # What write queue length does an incoming req see
system.mem_ctrls2.wrQLenPdf::5                      1                       # What write queue length does an incoming req see
system.mem_ctrls2.wrQLenPdf::6                      1                       # What write queue length does an incoming req see
system.mem_ctrls2.wrQLenPdf::7                      1                       # What write queue length does an incoming req see
system.mem_ctrls2.wrQLenPdf::8                      1                       # What write queue length does an incoming req see
system.mem_ctrls2.wrQLenPdf::9                      1                       # What write queue length does an incoming req see
system.mem_ctrls2.wrQLenPdf::10                     1                       # What write queue length does an incoming req see
system.mem_ctrls2.wrQLenPdf::11                     1                       # What write queue length does an incoming req see
system.mem_ctrls2.wrQLenPdf::12                     1                       # What write queue length does an incoming req see
system.mem_ctrls2.wrQLenPdf::13                     1                       # What write queue length does an incoming req see
system.mem_ctrls2.wrQLenPdf::14                     1                       # What write queue length does an incoming req see
system.mem_ctrls2.wrQLenPdf::15                 10469                       # What write queue length does an incoming req see
system.mem_ctrls2.wrQLenPdf::16                 10531                       # What write queue length does an incoming req see
system.mem_ctrls2.wrQLenPdf::17                 10770                       # What write queue length does an incoming req see
system.mem_ctrls2.wrQLenPdf::18                 10850                       # What write queue length does an incoming req see
system.mem_ctrls2.wrQLenPdf::19                 10850                       # What write queue length does an incoming req see
system.mem_ctrls2.wrQLenPdf::20                 10847                       # What write queue length does an incoming req see
system.mem_ctrls2.wrQLenPdf::21                 10845                       # What write queue length does an incoming req see
system.mem_ctrls2.wrQLenPdf::22                 10840                       # What write queue length does an incoming req see
system.mem_ctrls2.wrQLenPdf::23                 10839                       # What write queue length does an incoming req see
system.mem_ctrls2.wrQLenPdf::24                 10842                       # What write queue length does an incoming req see
system.mem_ctrls2.wrQLenPdf::25                 10845                       # What write queue length does an incoming req see
system.mem_ctrls2.wrQLenPdf::26                 10845                       # What write queue length does an incoming req see
system.mem_ctrls2.wrQLenPdf::27                 10849                       # What write queue length does an incoming req see
system.mem_ctrls2.wrQLenPdf::28                 10834                       # What write queue length does an incoming req see
system.mem_ctrls2.wrQLenPdf::29                 10836                       # What write queue length does an incoming req see
system.mem_ctrls2.wrQLenPdf::30                 10828                       # What write queue length does an incoming req see
system.mem_ctrls2.wrQLenPdf::31                 10826                       # What write queue length does an incoming req see
system.mem_ctrls2.wrQLenPdf::32                 10827                       # What write queue length does an incoming req see
system.mem_ctrls2.wrQLenPdf::33                    11                       # What write queue length does an incoming req see
system.mem_ctrls2.wrQLenPdf::34                     0                       # What write queue length does an incoming req see
system.mem_ctrls2.wrQLenPdf::35                     0                       # What write queue length does an incoming req see
system.mem_ctrls2.wrQLenPdf::36                     0                       # What write queue length does an incoming req see
system.mem_ctrls2.wrQLenPdf::37                     0                       # What write queue length does an incoming req see
system.mem_ctrls2.wrQLenPdf::38                     0                       # What write queue length does an incoming req see
system.mem_ctrls2.wrQLenPdf::39                     0                       # What write queue length does an incoming req see
system.mem_ctrls2.wrQLenPdf::40                     0                       # What write queue length does an incoming req see
system.mem_ctrls2.wrQLenPdf::41                     0                       # What write queue length does an incoming req see
[...]
system.ruby.L1Cache_Controller.M.Load::total    148200769                      
system.ruby.L1Cache_Controller.M.Ifetch  |     2388279      0.00%      0.00% |       81493      0.00%      0.00% |18446744072780771328    100.00%    100.00% |       81917      0.00%    100.00%
system.ruby.L1Cache_Controller.M.Ifetch::total 18446744072783323136                      
system.ruby.L1Cache_Controller.M.Store   |        5018      1.14%      1.14% |        2410      0.55%      1.69% |      427057     97.09%     98.78% |        5367      1.22%    100.00%
system.ruby.L1Cache_Controller.M.Store::total       439852                      
system.ruby.L1Cache_Controller.M.L2_Replacement |         290      0.05%      0.05% |          13      0.00%      0.05% |      614159     99.93%     99.98% |         144      0.02%    100.00%
system.ruby.L1Cache_Controller.M.L2_Replacement::total       614606                      
system.ruby.L1Cache_Controller.M.L1_to_L2 |       17736      0.86%      0.86% |        5350      0.26%      1.12% |     2036377     98.57%     99.69% |        6502      0.31%    100.00%
system.ruby.L1Cache_Controller.M.L1_to_L2::total      2065965                      
system.ruby.L1Cache_Controller.M.Trigger_L2_to_L1D |        2867      0.21%      0.21% |        1208      0.09%      0.29% |     1385416     99.56%     99.85% |        2025      0.15%    100.00%
system.ruby.L1Cache_Controller.M.Trigger_L2_to_L1D::total      1391516                      
system.ruby.L1Cache_Controller.M.Trigger_L2_to_L1I |        8822     21.01%     21.01% |         980      2.33%     23.34% |       31724     75.55%     98.89% |         465      1.11%    100.00%
system.ruby.L1Cache_Controller.M.Trigger_L2_to_L1I::total        41991                      
system.ruby.L1Cache_Controller.M.Other_GETX |         899     39.10%     39.10% |         200      8.70%     47.80% |         217      9.44%     57.24% |         983     42.76%    100.00%
system.ruby.L1Cache_Controller.M.Other_GETX::total         2299                      
system.ruby.L1Cache_Controller.M.Other_GETS |        7557     25.75%     25.75% |       10838     36.93%     62.69% |        2898      9.88%     72.56% |        8052     27.44%    100.00%
system.ruby.L1Cache_Controller.M.Other_GETS::total        29345                      
system.ruby.L1Cache_Controller.M.Merged_GETS |           3      3.90%      3.90% |          10     12.99%     16.88% |          61     79.22%     96.10% |           3      3.90%    100.00%
system.ruby.L1Cache_Controller.M.Merged_GETS::total           77                      
system.ruby.L1Cache_Controller.MM.Load   |     1465189      0.71%      0.71% |      731105      0.35%      1.06% |   204368248     98.48%     99.54% |      953922      0.46%    100.00%
system.ruby.L1Cache_Controller.MM.Load::total    207518464                      
system.ruby.L1Cache_Controller.MM.Store  |     1502166      2.60%      2.60% |      802953      1.39%      4.00% |    54309622     94.13%     98.13% |     1079345      1.87%    100.00%
system.ruby.L1Cache_Controller.MM.Store::total     57694086                      
system.ruby.L1Cache_Controller.MM.L2_Replacement |         831      0.11%      0.11% |          25      0.00%      0.11% |      781775     99.81%     99.92% |         660      0.08%    100.00%
system.ruby.L1Cache_Controller.MM.L2_Replacement::total       783291                      
system.ruby.L1Cache_Controller.MM.L1_to_L2 |       39041      2.09%      2.09% |       14908      0.80%      2.89% |     1787748     95.82%     98.71% |       24018      1.29%    100.00%
system.ruby.L1Cache_Controller.MM.L1_to_L2::total      1865715                      
system.ruby.L1Cache_Controller.MM.Trigger_L2_to_L1D |       22750      2.22%      2.22% |        6166      0.60%      2.83% |      984221     96.23%     99.06% |        9618      0.94%    100.00%
system.ruby.L1Cache_Controller.MM.Trigger_L2_to_L1D::total      1022755                      
system.ruby.L1Cache_Controller.MM.Other_GETX |        4832     37.73%     37.73% |        1203      9.39%     47.13% |        5200     40.61%     87.73% |        1571     12.27%    100.00%
system.ruby.L1Cache_Controller.MM.Other_GETX::total        12806                      
system.ruby.L1Cache_Controller.MM.Other_GETS |       14822     42.86%     42.86% |        5312     15.36%     58.22% |        8334     24.10%     82.32% |        6115     17.68%    100.00%
system.ruby.L1Cache_Controller.MM.Other_GETS::total        34583                      
system.ruby.L1Cache_Controller.MM.Merged_GETS |         144     31.44%     31.44% |         126     27.51%     58.95% |          66     14.41%     73.36% |         122     26.64%    100.00%
system.ruby.L1Cache_Controller.MM.Merged_GETS::total          458                      
system.ruby.L1Cache_Controller.SR.Load   |        9000     12.64%     12.64% |        5678      7.97%     20.61% |       47881     67.23%     87.84% |        8659     12.16%    100.00%
system.ruby.L1Cache_Controller.SR.Load::total        71218                      
system.ruby.L1Cache_Controller.SR.Ifetch |       49145     27.68%     27.68% |       41632     23.45%     51.13% |       35811     20.17%     71.30% |       50964     28.70%    100.00%
system.ruby.L1Cache_Controller.SR.Ifetch::total       177552                      
system.ruby.L1Cache_Controller.SR.Store  |          97     22.56%     22.56% |          35      8.14%     30.70% |         165     38.37%     69.07% |         133     30.93%    100.00%
system.ruby.L1Cache_Controller.SR.Store::total          430                      
system.ruby.L1Cache_Controller.OR.Load   |        2284     28.69%     28.69% |        1889     23.73%     52.42% |        1334     16.76%     69.17% |        2454     30.83%    100.00%
system.ruby.L1Cache_Controller.OR.Load::total         7961                      
system.ruby.L1Cache_Controller.OR.Ifetch |       13980     49.72%     49.72% |         976      3.47%     53.19% |       12519     44.52%     97.71% |         645      2.29%    100.00%
system.ruby.L1Cache_Controller.OR.Ifetch::total        28120                      
system.ruby.L1Cache_Controller.OR.Store  |          44     63.77%     63.77% |           6      8.70%     72.46% |           2      2.90%     75.36% |          17     24.64%    100.00%
system.ruby.L1Cache_Controller.OR.Store::total           69                      
system.ruby.L1Cache_Controller.MR.Load   |        1812      0.13%      0.13% |         824      0.06%      0.19% |     1369004     99.71%     99.90% |        1411      0.10%    100.00%
system.ruby.L1Cache_Controller.MR.Load::total      1373051                      
system.ruby.L1Cache_Controller.MR.Ifetch |        8822     21.01%     21.01% |         980      2.33%     23.34% |       31724     75.55%     98.89% |         465      1.11%    100.00%
system.ruby.L1Cache_Controller.MR.Ifetch::total        41991                      
system.ruby.L1Cache_Controller.MR.Store  |        1055      5.71%      5.71% |         384      2.08%      7.79% |       16412     88.88%     96.67% |         614      3.33%    100.00%
system.ruby.L1Cache_Controller.MR.Store::total        18465                      
system.ruby.L1Cache_Controller.MMR.Load  |       14049      1.69%      1.69% |        2344      0.28%      1.97% |      809929     97.37%     99.34% |        5519      0.66%    100.00%
system.ruby.L1Cache_Controller.MMR.Load::total       831841                      
system.ruby.L1Cache_Controller.MMR.Store |        8701      4.56%      4.56% |        3822      2.00%      6.56% |      174292     91.29%     97.85% |        4099      2.15%    100.00%
system.ruby.L1Cache_Controller.MMR.Store::total       190914                      
system.ruby.L1Cache_Controller.IM.Other_GETX |           0      0.00%      0.00% |           1    100.00%    100.00% |           0      0.00%    100.00% |           0      0.00%    100.00%
system.ruby.L1Cache_Controller.IM.Other_GETX::total            1                      
system.ruby.L1Cache_Controller.IM.Ack    |       27130      2.40%      2.40% |       13104      1.16%      3.56% |     1078764     95.34%     98.89% |       12516      1.11%    100.00%
system.ruby.L1Cache_Controller.IM.Ack::total      1131514                      
system.ruby.L1Cache_Controller.IM.Data   |        3723     41.58%     41.58% |        1920     21.44%     63.02% |         999     11.16%     74.18% |        2312     25.82%    100.00%
system.ruby.L1Cache_Controller.IM.Data::total         8954                      
system.ruby.L1Cache_Controller.IM.Exclusive_Data |       10707      2.78%      2.78% |        6136      1.59%      4.37% |      361382     93.80%     98.17% |        7040      1.83%    100.00%
system.ruby.L1Cache_Controller.IM.Exclusive_Data::total       385265                      
system.ruby.L1Cache_Controller.SM.Other_GETX |           3    100.00%    100.00% |           0      0.00%    100.00% |           0      0.00%    100.00% |           0      0.00%    100.00%
system.ruby.L1Cache_Controller.SM.Other_GETX::total            3                      
system.ruby.L1Cache_Controller.SM.Ack    |        3042     24.40%     24.40% |        3641     29.21%     53.61% |        3870     31.04%     84.65% |        1913     15.35%    100.00%
system.ruby.L1Cache_Controller.SM.Ack::total        12466                      
system.ruby.L1Cache_Controller.SM.Data   |        5629     41.14%     41.14% |        2272     16.60%     57.74% |        2763     20.19%     77.93% |        3020     22.07%    100.00%
system.ruby.L1Cache_Controller.SM.Data::total        13684                      
system.ruby.L1Cache_Controller.OM.Ack    |         585     50.39%     50.39% |         117     10.08%     60.47% |         237     20.41%     80.88% |         222     19.12%    100.00%
system.ruby.L1Cache_Controller.OM.Ack::total         1161                      
system.ruby.L1Cache_Controller.OM.All_acks_no_sharers |         195     50.39%     50.39% |          39     10.08%     60.47% |          79     20.41%     80.88% |          74     19.12%    100.00%
system.ruby.L1Cache_Controller.OM.All_acks_no_sharers::total          387                      
system.ruby.L1Cache_Controller.ISM.Ack   |       14247     55.85%     55.85% |        1434      5.62%     61.47% |        2163      8.48%     69.95% |        7665     30.05%    100.00%
system.ruby.L1Cache_Controller.ISM.Ack::total        25509                      
system.ruby.L1Cache_Controller.ISM.All_acks_no_sharers |        9352     41.31%     41.31% |        4192     18.52%     59.83% |        3762     16.62%     76.45% |        5332     23.55%    100.00%
system.ruby.L1Cache_Controller.ISM.All_acks_no_sharers::total        22638                      
system.ruby.L1Cache_Controller.M_W.Load  |          75      7.12%      7.12% |         818     77.68%     84.81% |          72      6.84%     91.64% |          88      8.36%    100.00%
system.ruby.L1Cache_Controller.M_W.Load::total         1053                      
system.ruby.L1Cache_Controller.M_W.Store |          69     69.00%     69.00% |          17     17.00%     86.00% |           7      7.00%     93.00% |           7      7.00%    100.00%
system.ruby.L1Cache_Controller.M_W.Store::total          100                      
system.ruby.L1Cache_Controller.M_W.Ack   |        5884     15.88%     15.88% |       18422     49.72%     65.59% |        4998     13.49%     79.08% |        7751     20.92%    100.00%
system.ruby.L1Cache_Controller.M_W.Ack::total        37055                      
system.ruby.L1Cache_Controller.M_W.All_acks_no_sharers |       16706      1.50%      1.50% |       14967      1.35%      2.85% |     1063580     95.65%     98.50% |       16686      1.50%    100.00%
system.ruby.L1Cache_Controller.M_W.All_acks_no_sharers::total      1111939                      
system.ruby.L1Cache_Controller.MM_W.Load |           1    100.00%    100.00% |           0      0.00%    100.00% |           0      0.00%    100.00% |           0      0.00%    100.00%
system.ruby.L1Cache_Controller.MM_W.Load::total            1                      
system.ruby.L1Cache_Controller.MM_W.Store |        1739     29.38%     29.38% |        1658     28.01%     57.39% |        1374     23.21%     80.60% |        1148     19.40%    100.00%
system.ruby.L1Cache_Controller.MM_W.Store::total         5919                      
system.ruby.L1Cache_Controller.MM_W.Ack  |        3382     20.32%     20.32% |        4436     26.66%     46.98% |        3886     23.35%     70.33% |        4937     29.67%    100.00%
system.ruby.L1Cache_Controller.MM_W.Ack::total        16641                      
system.ruby.L1Cache_Controller.MM_W.All_acks_no_sharers |       10776      2.80%      2.80% |        6153      1.60%      4.39% |      361389     93.78%     98.17% |        7047      1.83%    100.00%
system.ruby.L1Cache_Controller.MM_W.All_acks_no_sharers::total       385365                      
system.ruby.L1Cache_Controller.IS.Other_GETS |           0      0.00%      0.00% |           1    100.00%    100.00% |           0      0.00%    100.00% |           0      0.00%    100.00%
system.ruby.L1Cache_Controller.IS.Other_GETS::total            1                      
system.ruby.L1Cache_Controller.IS.Ack    |       50903      1.53%      1.53% |       23469      0.71%      2.24% |     3199081     96.30%     98.54% |       48477      1.46%    100.00%
system.ruby.L1Cache_Controller.IS.Ack::total      3321930                      
system.ruby.L1Cache_Controller.IS.Shared_Ack |        3409      8.25%      8.25% |       14273     34.55%     42.80% |       14251     34.49%     77.29% |        9381     22.71%    100.00%
system.ruby.L1Cache_Controller.IS.Shared_Ack::total        41314                      
system.ruby.L1Cache_Controller.IS.Data   |         367      2.71%      2.71% |        3741     27.64%     30.35% |        5819     43.00%     73.35% |        3607     26.65%    100.00%
system.ruby.L1Cache_Controller.IS.Data::total        13534                      
system.ruby.L1Cache_Controller.IS.Shared_Data |       15425     27.51%     27.51% |       11412     20.35%     47.86% |       13399     23.90%     71.76% |       15835     28.24%    100.00%
system.ruby.L1Cache_Controller.IS.Shared_Data::total        56071                      
system.ruby.L1Cache_Controller.IS.Exclusive_Data |       16775      1.51%      1.51% |       14984      1.35%      2.86% |     1063587     95.64%     98.50% |       16693      1.50%    100.00%
system.ruby.L1Cache_Controller.IS.Exclusive_Data::total      1112039                      
system.ruby.L1Cache_Controller.SS.Load   |          38     10.95%     10.95% |          65     18.73%     29.68% |          85     24.50%     54.18% |         159     45.82%    100.00%
system.ruby.L1Cache_Controller.SS.Load::total          347                      
system.ruby.L1Cache_Controller.SS.Ifetch |        1001     14.26%     14.26% |         949     13.51%     27.77% |        2694     38.37%     66.14% |        2378     33.86%    100.00%
system.ruby.L1Cache_Controller.SS.Ifetch::total         7022                      
system.ruby.L1Cache_Controller.SS.Store  |           1      2.27%      2.27% |           3      6.82%      9.09% |          37     84.09%     93.18% |           3      6.82%    100.00%
system.ruby.L1Cache_Controller.SS.Store::total           44                      
system.ruby.L1Cache_Controller.SS.Ack    |        5606     16.83%     16.83% |        8533     25.61%     42.44% |        9364     28.11%     70.55% |        9812     29.45%    100.00%
system.ruby.L1Cache_Controller.SS.Ack::total        33315                      
system.ruby.L1Cache_Controller.SS.Shared_Ack |        7128     36.56%     36.56% |        1890      9.69%     46.25% |        3087     15.83%     62.08% |        7393     37.92%    100.00%
system.ruby.L1Cache_Controller.SS.Shared_Ack::total        19498                      
system.ruby.L1Cache_Controller.SS.All_acks |       15772     22.68%     22.68% |       15142     21.77%     44.45% |       19207     27.62%     72.06% |       19431     27.94%    100.00%
system.ruby.L1Cache_Controller.SS.All_acks::total        69552                      
system.ruby.L1Cache_Controller.SS.All_acks_no_sharers |          20     37.74%     37.74% |          11     20.75%     58.49% |          11     20.75%     79.25% |          11     20.75%    100.00%
system.ruby.L1Cache_Controller.SS.All_acks_no_sharers::total           53                      
system.ruby.L1Cache_Controller.OI.Load   |           1    100.00%    100.00% |           0      0.00%    100.00% |           0      0.00%    100.00% |           0      0.00%    100.00%
system.ruby.L1Cache_Controller.OI.Load::total            1                      
system.ruby.L1Cache_Controller.OI.Ifetch |           0      0.00%      0.00% |           0      0.00%      0.00% |           1    100.00%    100.00% |           0      0.00%    100.00%
system.ruby.L1Cache_Controller.OI.Ifetch::total            1                      
system.ruby.L1Cache_Controller.OI.Store  |           0      0.00%      0.00% |           0      0.00%      0.00% |           0      0.00%      0.00% |           1    100.00%    100.00%
system.ruby.L1Cache_Controller.OI.Store::total            1                      
system.ruby.L1Cache_Controller.OI.Writeback_Ack |         207      4.31%      4.31% |           6      0.12%      4.43% |        4480     93.28%     97.71% |         110      2.29%    100.00%
system.ruby.L1Cache_Controller.OI.Writeback_Ack::total         4803                      
system.ruby.L1Cache_Controller.MI.Load   |           0      0.00%      0.00% |           0      0.00%      0.00% |        4557     99.93%     99.93% |           3      0.07%    100.00%
system.ruby.L1Cache_Controller.MI.Load::total         4560                      
system.ruby.L1Cache_Controller.MI.Ifetch |           0      0.00%      0.00% |           0      0.00%      0.00% |           1    100.00%    100.00% |           0      0.00%    100.00%
system.ruby.L1Cache_Controller.MI.Ifetch::total            1                      
system.ruby.L1Cache_Controller.MI.Store  |           2      0.13%      0.13% |           0      0.00%      0.13% |        1486     99.66%     99.80% |           3      0.20%    100.00%
system.ruby.L1Cache_Controller.MI.Store::total         1491                      
system.ruby.L1Cache_Controller.MI.Writeback_Ack |        1121      0.08%      0.08% |          38      0.00%      0.08% |     1395934     99.86%     99.94% |         804      0.06%    100.00%
system.ruby.L1Cache_Controller.MI.Writeback_Ack::total      1397897                      
system.ruby.L1Cache_Controller.ST.Complete_L2_to_L1 |       58242     23.37%     23.37% |       47345     19.00%     42.37% |       83857     33.65%     76.02% |       59756     23.98%    100.00%
system.ruby.L1Cache_Controller.ST.Complete_L2_to_L1::total       249200                      
system.ruby.L1Cache_Controller.OT.Complete_L2_to_L1 |       16308     45.11%     45.11% |        2871      7.94%     53.05% |       13855     38.33%     91.38% |        3116      8.62%    100.00%
system.ruby.L1Cache_Controller.OT.Complete_L2_to_L1::total        36150                      
system.ruby.L1Cache_Controller.MT.Complete_L2_to_L1 |       11689      0.82%      0.82% |        2188      0.15%      0.97% |     1417140     98.86%     99.83% |        2490      0.17%    100.00%
system.ruby.L1Cache_Controller.MT.Complete_L2_to_L1::total      1433507                      
system.ruby.L1Cache_Controller.MMT.Complete_L2_to_L1 |       22750      2.22%      2.22% |        6166      0.60%      2.83% |      984221     96.23%     99.06% |        9618      0.94%    100.00%
system.ruby.L1Cache_Controller.MMT.Complete_L2_to_L1::total      1022755                      

---------- End Simulation Statistics   ----------
