
---------- Begin Simulation Statistics ----------
sim_seconds                                  3.607540                       # Number of seconds simulated
sim_ticks                                3607539974000                       # Number of ticks simulated
final_tick                               56048381129501                       # Number of ticks from beginning of simulation (restored from checkpoints and never reset)
sim_freq                                 1000000000000                       # Frequency of simulated ticks
host_inst_rate                                 139709                       # Simulator instruction rate (inst/s)
host_op_rate                                   237936                       # Simulator op (including micro ops) rate (op/s)
host_tick_rate                              249392645                       # Simulator tick rate (ticks/s)
host_mem_usage                                1871584                       # Number of bytes of host memory used
host_seconds                                 14465.30                       # Real time elapsed on the host
sim_insts                                  2020932212                       # Number of instructions simulated
sim_ops                                    3441823213                       # Number of ops (including micro ops) simulated
system.voltage_domain.voltage                       1                       # Voltage in Volts
system.clk_domain.clock                          1000                       # Clock period in ticks
system.mem_ctrls.bytes_read::ruby.dir_cntrl0      1509248                       # Number of bytes read from this memory
system.mem_ctrls.bytes_read::total            1509248                       # Number of bytes read from this memory
system.mem_ctrls.bytes_written::ruby.dir_cntrl0       752448                       # Number of bytes written to this memory
system.mem_ctrls.bytes_written::total          752448                       # Number of bytes written to this memory
system.mem_ctrls.num_reads::ruby.dir_cntrl0        23582                       # Number of read requests responded to by this memory
system.mem_ctrls.num_reads::total               23582                       # Number of read requests responded to by this memory
system.mem_ctrls.num_writes::ruby.dir_cntrl0        11757                       # Number of write requests responded to by this memory
system.mem_ctrls.num_writes::total              11757                       # Number of write requests responded to by this memory
system.mem_ctrls.bw_read::ruby.dir_cntrl0       418359                       # Total read bandwidth from this memory (bytes/s)
system.mem_ctrls.bw_read::total                418359                       # Total read bandwidth from this memory (bytes/s)
system.mem_ctrls.bw_write::ruby.dir_cntrl0       208576                       # Write bandwidth from this memory (bytes/s)
system.mem_ctrls.bw_write::total               208576                       # Write bandwidth from this memory (bytes/s)
system.mem_ctrls.bw_total::ruby.dir_cntrl0       626936                       # Total bandwidth to/from this memory (bytes/s)
system.mem_ctrls.bw_total::total               626936                       # Total bandwidth to/from this memory (bytes/s)
system.mem_ctrls.readReqs                       23582                       # Number of read requests accepted
system.mem_ctrls.writeReqs                      11757                       # Number of write requests accepted
system.mem_ctrls.readBursts                     23582                       # Number of DRAM read bursts, including those serviced by the write queue
system.mem_ctrls.writeBursts                    11757                       # Number of DRAM write bursts, including those merged in the write queue
system.mem_ctrls.bytesReadDRAM                1496064                       # Total number of bytes read from DRAM
system.mem_ctrls.bytesReadWrQ                   13184                       # Total number of bytes read from write queue
system.mem_ctrls.bytesWritten                  749888                       # Total number of bytes written to DRAM
system.mem_ctrls.bytesReadSys                 1509248                       # Total read bytes from the system interface side
system.mem_ctrls.bytesWrittenSys               752448                       # Total written bytes from the system interface side
system.mem_ctrls.servicedByWrQ                    206                       # Number of DRAM read bursts serviced by the write queue
system.mem_ctrls.mergedWrBursts                    33                       # Number of DRAM write bursts merged with an existing one
system.mem_ctrls.neitherReadNorWriteReqs            0                       # Number of requests that are neither read nor write
system.mem_ctrls.perBankRdBursts::0              2064                       # Per bank write bursts
system.mem_ctrls.perBankRdBursts::1              1327                       # Per bank write bursts
system.mem_ctrls.perBankRdBursts::2              1118                       # Per bank write bursts
system.mem_ctrls.perBankRdBursts::3              1082                       # Per bank write bursts
system.mem_ctrls.perBankRdBursts::4              1278                       # Per bank write bursts
system.mem_ctrls.perBankRdBursts::5              1607                       # Per bank write bursts
system.mem_ctrls.perBankRdBursts::6              1924                       # Per bank write bursts
system.mem_ctrls.perBankRdBursts::7              2329                       # Per bank write bursts
system.mem_ctrls.perBankRdBursts::8              1172                       # Per bank write bursts
system.mem_ctrls.perBankRdBursts::9               979                       # Per bank write bursts
system.mem_ctrls.perBankRdBursts::10             1287                       # Per bank write bursts
system.mem_ctrls.perBankRdBursts::11             1094                       # Per bank write bursts
system.mem_ctrls.perBankRdBursts::12             1141                       # Per bank write bursts
system.mem_ctrls.perBankRdBursts::13             1494                       # Per bank write bursts
system.mem_ctrls.perBankRdBursts::14             2039                       # Per bank write bursts
system.mem_ctrls.perBankRdBursts::15             1441                       # Per bank write bursts
system.mem_ctrls.perBankWrBursts::0              1076                       # Per bank write bursts
system.mem_ctrls.perBankWrBursts::1               657                       # Per bank write bursts
system.mem_ctrls.perBankWrBursts::2               638                       # Per bank write bursts
system.mem_ctrls.perBankWrBursts::3               553                       # Per bank write bursts
system.mem_ctrls.perBankWrBursts::4               840                       # Per bank write bursts
system.mem_ctrls.perBankWrBursts::5               813                       # Per bank write bursts
system.mem_ctrls.perBankWrBursts::6              1056                       # Per bank write bursts
system.mem_ctrls.perBankWrBursts::7              1300                       # Per bank write bursts
system.mem_ctrls.perBankWrBursts::8               548                       # Per bank write bursts
system.mem_ctrls.perBankWrBursts::9               292                       # Per bank write bursts
system.mem_ctrls.perBankWrBursts::10              516                       # Per bank write bursts
system.mem_ctrls.perBankWrBursts::11              295                       # Per bank write bursts
system.mem_ctrls.perBankWrBursts::12              475                       # Per bank write bursts
system.mem_ctrls.perBankWrBursts::13              745                       # Per bank write bursts
system.mem_ctrls.perBankWrBursts::14             1318                       # Per bank write bursts
system.mem_ctrls.perBankWrBursts::15              595                       # Per bank write bursts
system.mem_ctrls.numRdRetry                         0                       # Number of times read queue was full causing retry
system.mem_ctrls.numWrRetry                         0                       # Number of times write queue was full causing retry
system.mem_ctrls.totGap                  3607540023500                       # Total gap between requests
system.mem_ctrls.readPktSize::0                     0                       # Read request sizes (log2)
system.mem_ctrls.readPktSize::1                     0                       # Read request sizes (log2)
system.mem_ctrls.readPktSize::2                     0                       # Read request sizes (log2)
system.mem_ctrls.readPktSize::3                     0                       # Read request sizes (log2)
system.mem_ctrls.readPktSize::4                     0                       # Read request sizes (log2)
system.mem_ctrls.readPktSize::5                     0                       # Read request sizes (log2)
system.mem_ctrls.readPktSize::6                 23582                       # Read request sizes (log2)
system.mem_ctrls.writePktSize::0                    0                       # Write request sizes (log2)
system.mem_ctrls.writePktSize::1                    0                       # Write request sizes (log2)
system.mem_ctrls.writePktSize::2                    0                       # Write request sizes (log2)
system.mem_ctrls.writePktSize::3                    0                       # Write request sizes (log2)
system.mem_ctrls.writePktSize::4                    0                       # Write request sizes (log2)
system.mem_ctrls.writePktSize::5                    0                       # Write request sizes (log2)
system.mem_ctrls.writePktSize::6                11757                       # Write request sizes (log2)
system.mem_ctrls.rdQLenPdf::0                   23132                       # What read queue length does an incoming req see
system.mem_ctrls.rdQLenPdf::1                     237                       # What read queue length does an incoming req see
system.mem_ctrls.rdQLenPdf::2                       7                       # What read queue length does an incoming req see
system.mem_ctrls.rdQLenPdf::3                       0                       # What read queue length does an incoming req see
system.mem_ctrls.rdQLenPdf::4                       0                       # What read queue length does an incoming req see
system.mem_ctrls.rdQLenPdf::5                       0                       # What read queue length does an incoming req see
system.mem_ctrls.rdQLenPdf::6                       0                       # What read queue length does an incoming req see
system.mem_ctrls.rdQLenPdf::7                       0                       # What read queue length does an incoming req see
system.mem_ctrls.rdQLenPdf::8                       0                       # What read queue length does an incoming req see
system.mem_ctrls.rdQLenPdf::9                       0                       # What read queue length does an incoming req see
system.mem_ctrls.rdQLenPdf::10                      0                       # What read queue length does an incoming req see
system.mem_ctrls.rdQLenPdf::11                      0                       # What read queue length does an incoming req see
system.mem_ctrls.rdQLenPdf::12                      0                       # What read queue length does an incoming req see
system.mem_ctrls.rdQLenPdf::13                      0                       # What read queue length does an incoming req see
system.mem_ctrls.rdQLenPdf::14                      0                       # What read queue length does an incoming req see
system.mem_ctrls.rdQLenPdf::15                      0                       # What read queue length does an incoming req see
system.mem_ctrls.rdQLenPdf::16                      0                       # What read queue length does an incoming req see
system.mem_ctrls.rdQLenPdf::17                      0                       # What read queue length does an incoming req see
system.mem_ctrls.rdQLenPdf::18                      0                       # What read queue length does an incoming req see
system.mem_ctrls.rdQLenPdf::19                      0                       # What read queue length does an incoming req see
system.mem_ctrls.rdQLenPdf::20                      0                       # What read queue length does an incoming req see
system.mem_ctrls.rdQLenPdf::21                      0                       # What read queue length does an incoming req see
system.mem_ctrls.rdQLenPdf::22                      0                       # What read queue length does an incoming req see
system.mem_ctrls.rdQLenPdf::23                      0                       # What read queue length does an incoming req see
system.mem_ctrls.rdQLenPdf::24                      0                       # What read queue length does an incoming req see
system.mem_ctrls.rdQLenPdf::25                      0                       # What read queue length does an incoming req see
system.mem_ctrls.rdQLenPdf::26                      0                       # What read queue length does an incoming req see
system.mem_ctrls.rdQLenPdf::27                      0                       # What read queue length does an incoming req see
system.mem_ctrls.rdQLenPdf::28                      0                       # What read queue length does an incoming req see
system.mem_ctrls.rdQLenPdf::29                      0                       # What read queue length does an incoming req see
system.mem_ctrls.rdQLenPdf::30                      0                       # What read queue length does an incoming req see
system.mem_ctrls.rdQLenPdf::31                      0                       # What read queue length does an incoming req see
system.mem_ctrls.wrQLenPdf::0                       0                       # What write queue length does an incoming req see
system.mem_ctrls.wrQLenPdf::1                       0                       # What write queue length does an incoming req see
system.mem_ctrls.wrQLenPdf::2                       0                       # What write queue length does an incoming req see
system.mem_ctrls.wrQLenPdf::3                       0                       # What write queue length does an incoming req see
system.mem_ctrls.wrQLenPdf::4                       0                       # What write queue length does an incoming req see
system.mem_ctrls.wrQLenPdf::5                       0                       # What write queue length does an incoming req see
system.mem_ctrls.wrQLenPdf::6                       0                       # What write queue length does an incoming req see
system.mem_ctrls.wrQLenPdf::7                       0                       # What write queue length does an incoming req see
system.mem_ctrls.wrQLenPdf::8                       0                       # What write queue length does an incoming req see
system.mem_ctrls.wrQLenPdf::9                       0                       # What write queue length does an incoming req see
system.mem_ctrls.wrQLenPdf::10                      0                       # What write queue length does an incoming req see
system.mem_ctrls.wrQLenPdf::11                      0                       # What write queue length does an incoming req see
system.mem_ctrls.wrQLenPdf::12                      0                       # What write queue length does an incoming req see
system.mem_ctrls.wrQLenPdf::13                      0                       # What write queue length does an incoming req see
system.mem_ctrls.wrQLenPdf::14                      0                       # What write queue length does an incoming req see
system.mem_ctrls.wrQLenPdf::15                    151                       # What write queue length does an incoming req see
system.mem_ctrls.wrQLenPdf::16                    198                       # What write queue length does an incoming req see
system.mem_ctrls.wrQLenPdf::17                    665                       # What write queue length does an incoming req see
system.mem_ctrls.wrQLenPdf::18                    721                       # What write queue length does an incoming req see
system.mem_ctrls.wrQLenPdf::19                    713                       # What write queue length does an incoming req see
system.mem_ctrls.wrQLenPdf::20                    760                       # What write queue length does an incoming req see
system.mem_ctrls.wrQLenPdf::21                    744                       # What write queue length does an incoming req see
system.mem_ctrls.wrQLenPdf::22                    701                       # What write queue length does an incoming req see
system.mem_ctrls.wrQLenPdf::23                    745                       # What write queue length does an incoming req see
system.mem_ctrls.wrQLenPdf::24                    738                       # What write queue length does an incoming req see
system.mem_ctrls.wrQLenPdf::25                    703                       # What write queue length does an incoming req see
system.mem_ctrls.wrQLenPdf::26                    711                       # What write queue length does an incoming req see
system.mem_ctrls.wrQLenPdf::27                    703                       # What write queue length does an incoming req see
system.mem_ctrls.wrQLenPdf::28                    714                       # What write queue length does an incoming req see
system.mem_ctrls.wrQLenPdf::29                    682                       # What write queue length does an incoming req see
system.mem_ctrls.wrQLenPdf::30                    679                       # What write queue length does an incoming req see
system.mem_ctrls.wrQLenPdf::31                    685                       # What write queue length does an incoming req see
system.mem_ctrls.wrQLenPdf::32                    673                       # What write queue length does an incoming req see
system.mem_ctrls.wrQLenPdf::33                      7                       # What write queue length does an incoming req see
system.mem_ctrls.wrQLenPdf::34                      5                       # What write queue length does an incoming req see
system.mem_ctrls.wrQLenPdf::35                      5                       # What write queue length does an incoming req see
system.mem_ctrls.wrQLenPdf::36                      4                       # What write queue length does an incoming req see
system.mem_ctrls.wrQLenPdf::37                      4                       # What write queue length does an incoming req see
system.mem_ctrls.wrQLenPdf::38                      3                       # What write queue length does an incoming req see
system.mem_ctrls.wrQLenPdf::39                      3                       # What write queue length does an incoming req see
system.mem_ctrls.wrQLenPdf::40                      4                       # What write queue length does an incoming req see
system.mem_ctrls.wrQLenPdf::41                      2                       # What write queue length does an incoming req see
system.mem_ctrls.wrQLenPdf::42                      1                       # What write queue length does an incoming req see
system.mem_ctrls.wrQLenPdf::43                      0                       # What write queue length does an incoming req see
system.mem_ctrls.wrQLenPdf::44                      0                       # What write queue length does an incoming req see
system.mem_ctrls.wrQLenPdf::45                      0                       # What write queue length does an incoming req see
system.mem_ctrls.wrQLenPdf::46                      0                       # What write queue length does an incoming req see
system.mem_ctrls.wrQLenPdf::47                      0                       # What write queue length does an incoming req see
system.mem_ctrls.wrQLenPdf::48                      0                       # What write queue length does an incoming req see
system.mem_ctrls.wrQLenPdf::49                      0                       # What write queue length does an incoming req see
system.mem_ctrls.wrQLenPdf::50                      0                       # What write queue length does an incoming req see
system.mem_ctrls.wrQLenPdf::51                      0                       # What write queue length does an incoming req see
system.mem_ctrls.wrQLenPdf::52                      0                       # What write queue length does an incoming req see
system.mem_ctrls.wrQLenPdf::53                      0                       # What write queue length does an incoming req see
system.mem_ctrls.wrQLenPdf::54                      0                       # What write queue length does an incoming req see
system.mem_ctrls.wrQLenPdf::55                      0                       # What write queue length does an incoming req see
system.mem_ctrls.wrQLenPdf::56                      0                       # What write queue length does an incoming req see
system.mem_ctrls.wrQLenPdf::57                      0                       # What write queue length does an incoming req see
system.mem_ctrls.wrQLenPdf::58                      0                       # What write queue length does an incoming req see
system.mem_ctrls.wrQLenPdf::59                      0                       # What write queue length does an incoming req see
system.mem_ctrls.wrQLenPdf::60                      0                       # What write queue length does an incoming req see
system.mem_ctrls.wrQLenPdf::61                      0                       # What write queue length does an incoming req see
system.mem_ctrls.wrQLenPdf::62                      0                       # What write queue length does an incoming req see
system.mem_ctrls.wrQLenPdf::63                      0                       # What write queue length does an incoming req see
system.mem_ctrls.bytesPerActivate::samples        11985                       # Bytes accessed per row activation
system.mem_ctrls.bytesPerActivate::mean    187.391573                       # Bytes accessed per row activation
system.mem_ctrls.bytesPerActivate::gmean   115.435915                       # Bytes accessed per row activation
system.mem_ctrls.bytesPerActivate::stdev   248.594392                       # Bytes accessed per row activation
system.mem_ctrls.bytesPerActivate::0-127         6952     58.01%     58.01% # Bytes accessed per row activation
system.mem_ctrls.bytesPerActivate::128-255         2720     22.70%     80.70% # Bytes accessed per row activation
system.mem_ctrls.bytesPerActivate::256-383          710      5.92%     86.62% # Bytes accessed per row activation
system.mem_ctrls.bytesPerActivate::384-511          387      3.23%     89.85% # Bytes accessed per row activation
system.mem_ctrls.bytesPerActivate::512-639          233      1.94%     91.80% # Bytes accessed per row activation
system.mem_ctrls.bytesPerActivate::640-767          142      1.18%     92.98% # Bytes accessed per row activation
system.mem_ctrls.bytesPerActivate::768-895          105      0.88%     93.86% # Bytes accessed per row activation
system.mem_ctrls.bytesPerActivate::896-1023          101      0.84%     94.70% # Bytes accessed per row activation
system.mem_ctrls.bytesPerActivate::1024-1151          635      5.30%    100.00% # Bytes accessed per row activation
system.mem_ctrls.bytesPerActivate::total        11985                       # Bytes accessed per row activation
system.mem_ctrls.rdPerTurnAround::samples          671                       # Reads before turning the bus around for writes
system.mem_ctrls.rdPerTurnAround::mean      34.931446                       # Reads before turning the bus around for writes
system.mem_ctrls.rdPerTurnAround::stdev     43.000397                       # Reads before turning the bus around for writes
system.mem_ctrls.rdPerTurnAround::0-15            126     18.78%     18.78% # Reads before turning the bus around for writes
system.mem_ctrls.rdPerTurnAround::16-31           316     47.09%     65.87% # Reads before turning the bus around for writes
system.mem_ctrls.rdPerTurnAround::32-47           128     19.08%     84.95% # Reads before turning the bus around for writes
system.mem_ctrls.rdPerTurnAround::48-63            29      4.32%     89.27% # Reads before turning the bus around for writes
system.mem_ctrls.rdPerTurnAround::64-79            19      2.83%     92.10% # Reads before turning the bus around for writes
system.mem_ctrls.rdPerTurnAround::80-95            14      2.09%     94.19% # Reads before turning the bus around for writes
system.mem_ctrls.rdPerTurnAround::96-111            8      1.19%     95.38% # Reads before turning the bus around for writes
system.mem_ctrls.rdPerTurnAround::112-127            4      0.60%     95.98% # Reads before turning the bus around for writes
system.mem_ctrls.rdPerTurnAround::128-143            3      0.45%     96.42% # Reads before turning the bus around for writes
system.mem_ctrls.rdPerTurnAround::144-159            6      0.89%     97.32% # Reads before turning the bus around for writes
system.mem_ctrls.rdPerTurnAround::160-175            1      0.15%     97.47% # Reads before turning the bus around for writes
system.mem_ctrls.rdPerTurnAround::176-191            5      0.75%     98.21% # Reads before turning the bus around for writes
system.mem_ctrls.rdPerTurnAround::192-207            2      0.30%     98.51% # Reads before turning the bus around for writes
system.mem_ctrls.rdPerTurnAround::208-223            4      0.60%     99.11% # Reads before turning the bus around for writes
system.mem_ctrls.rdPerTurnAround::240-255            1      0.15%     99.25% # Reads before turning the bus around for writes
system.mem_ctrls.rdPerTurnAround::256-271            1      0.15%     99.40% # Reads before turning the bus around for writes
system.mem_ctrls.rdPerTurnAround::288-303            2      0.30%     99.70% # Reads before turning the bus around for writes
system.mem_ctrls.rdPerTurnAround::336-351            1      0.15%     99.85% # Reads before turning the bus around for writes
system.mem_ctrls.rdPerTurnAround::432-447            1      0.15%    100.00% # Reads before turning the bus around for writes
system.mem_ctrls.rdPerTurnAround::total           671                       # Reads before turning the bus around for writes
system.mem_ctrls.wrPerTurnAround::samples          671                       # Writes before turning the bus around for reads
system.mem_ctrls.wrPerTurnAround::mean      17.461997                       # Writes before turning the bus around for reads
system.mem_ctrls.wrPerTurnAround::gmean     17.221661                       # Writes before turning the bus around for reads
system.mem_ctrls.wrPerTurnAround::stdev      3.330273                       # Writes before turning the bus around for reads
system.mem_ctrls.wrPerTurnAround::16              504     75.11%     75.11% # Writes before turning the bus around for reads
system.mem_ctrls.wrPerTurnAround::17                7      1.04%     76.15% # Writes before turning the bus around for reads
system.mem_ctrls.wrPerTurnAround::18               54      8.05%     84.20% # Writes before turning the bus around for reads
system.mem_ctrls.wrPerTurnAround::19                4      0.60%     84.80% # Writes before turning the bus around for reads
system.mem_ctrls.wrPerTurnAround::21               29      4.32%     89.12% # Writes before turning the bus around for reads
system.mem_ctrls.wrPerTurnAround::22                6      0.89%     90.01% # Writes before turning the bus around for reads
system.mem_ctrls.wrPerTurnAround::23                7      1.04%     91.06% # Writes before turning the bus around for reads
system.mem_ctrls.wrPerTurnAround::24               26      3.87%     94.93% # Writes before turning the bus around for reads
system.mem_ctrls.wrPerTurnAround::25                8      1.19%     96.13% # Writes before turning the bus around for reads
system.mem_ctrls.wrPerTurnAround::26                2      0.30%     96.42% # Writes before turning the bus around for reads
system.mem_ctrls.wrPerTurnAround::27                1      0.15%     96.57% # Writes before turning the bus around for reads
system.mem_ctrls.wrPerTurnAround::28               20      2.98%     99.55% # Writes before turning the bus around for reads
system.mem_ctrls.wrPerTurnAround::36                1      0.15%     99.70% # Writes before turning the bus around for reads
system.mem_ctrls.wrPerTurnAround::41                1      0.15%     99.85% # Writes before turning the bus around for reads
system.mem_ctrls.wrPerTurnAround::44                1      0.15%    100.00% # Writes before turning the bus around for reads
system.mem_ctrls.wrPerTurnAround::total           671                       # Writes before turning the bus around for reads
system.mem_ctrls.totQLat                    289379744                       # Total ticks spent queuing
system.mem_ctrls.totMemAccLat               727679744                       # Total ticks spent from burst creation until serviced by the DRAM
system.mem_ctrls.totBusLat                  116880000                       # Total ticks spent in databus transfers
system.mem_ctrls.avgQLat                     12379.35                       # Average queueing delay per DRAM burst
system.mem_ctrls.avgBusLat                    5000.00                       # Average bus latency per DRAM burst
system.mem_ctrls.avgMemAccLat                31129.35                       # Average memory access latency per DRAM burst
system.mem_ctrls.avgRdBW                         0.41                       # Average DRAM read bandwidth in MiByte/s
system.mem_ctrls.avgWrBW                         0.21                       # Average achieved write bandwidth in MiByte/s
system.mem_ctrls.avgRdBWSys                      0.42                       # Average system read bandwidth in MiByte/s
system.mem_ctrls.avgWrBWSys                      0.21                       # Average system write bandwidth in MiByte/s
system.mem_ctrls.peakBW                      12800.00                       # Theoretical peak bandwidth in MiByte/s
system.mem_ctrls.busUtil                         0.00                       # Data bus utilization in percentage
system.mem_ctrls.busUtilRead                     0.00                       # Data bus utilization in percentage for reads
system.mem_ctrls.busUtilWrite                    0.00                       # Data bus utilization in percentage for writes
system.mem_ctrls.avgRdQLen                       1.00                       # Average read queue length when enqueuing
system.mem_ctrls.avgWrQLen                      24.77                       # Average write queue length when enqueuing
system.mem_ctrls.readRowHits                    16184                       # Number of row buffer hits during reads
system.mem_ctrls.writeRowHits                    6923                       # Number of row buffer hits during writes
system.mem_ctrls.readRowHitRate                 69.23                       # Row buffer hit rate for reads
system.mem_ctrls.writeRowHitRate                59.05                       # Row buffer hit rate for writes
system.mem_ctrls.avgGap                  102083817.41                       # Average gap between requests
system.mem_ctrls.pageHitRate                    65.83                       # Row buffer hit rate, read and write combined
system.mem_ctrls_0.actEnergy                 63345240                       # Energy for activate commands per rank (pJ)
system.mem_ctrls_0.preEnergy                 34563375                       # Energy for precharge commands per rank (pJ)
system.mem_ctrls_0.readEnergy               155477400                       # Energy for read commands per rank (pJ)
system.mem_ctrls_0.writeEnergy               44990640                       # Energy for write commands per rank (pJ)
system.mem_ctrls_0.refreshEnergy         235855888320                       # Energy for refresh commands per rank (pJ)
system.mem_ctrls_0.actBackEnergy          83020373460                       # Energy for active background per rank (pJ)
system.mem_ctrls_0.preBackEnergy         2093802108000                       # Energy for precharge background per rank (pJ)
system.mem_ctrls_0.totalEnergy           2412976746435                       # Total energy per rank (pJ)
system.mem_ctrls_0.averagePower            668.221180                       # Core power per rank (mW)
system.mem_ctrls_0.memoryStateTime::IDLE 3481898171250                       # Time in different power states
system.mem_ctrls_0.memoryStateTime::REF  120463720000                       # Time in different power states
system.mem_ctrls_0.memoryStateTime::PRE_PDN            0                       # Time in different power states
system.mem_ctrls_0.memoryStateTime::ACT    5179092750                       # Time in different power states
system.mem_ctrls_0.memoryStateTime::ACT_PDN            0                       # Time in different power states
system.mem_ctrls_1.actEnergy                 57161160                       # Energy for activate commands per rank (pJ)
system.mem_ctrls_1.preEnergy                 31189125                       # Energy for precharge commands per rank (pJ)
system.mem_ctrls_1.readEnergy               148746000                       # Energy for read commands per rank (pJ)
system.mem_ctrls_1.writeEnergy               31155840                       # Energy for write commands per rank (pJ)
system.mem_ctrls_1.refreshEnergy         235855888320                       # Energy for refresh commands per rank (pJ)
system.mem_ctrls_1.actBackEnergy          83247441795                       # Energy for active background per rank (pJ)
system.mem_ctrls_1.preBackEnergy         2093602925250                       # Energy for precharge background per rank (pJ)
system.mem_ctrls_1.totalEnergy           2412974507490                       # Total energy per rank (pJ)
system.mem_ctrls_1.averagePower            668.220560                       # Core power per rank (mW)
system.mem_ctrls_1.memoryStateTime::IDLE 3481553911500                       # Time in different power states
system.mem_ctrls_1.memoryStateTime::REF  120463720000                       # Time in different power states
system.mem_ctrls_1.memoryStateTime::PRE_PDN            0                       # Time in different power states
system.mem_ctrls_1.memoryStateTime::ACT    5523291000                       # Time in different power states
system.mem_ctrls_1.memoryStateTime::ACT_PDN            0                       # Time in different power states
system.cpu_voltage_domain.voltage                   1                       # Voltage in Volts
system.cpu_clk_domain.clock                       500                       # Clock period in ticks
system.cpu0.apic_clk_domain.clock                8000                       # Clock period in ticks
system.cpu0.numCycles                      7216454085                       # number of cpu cycles simulated
system.cpu0.numWorkItemsStarted                     0                       # number of work items this cpu started
system.cpu0.numWorkItemsCompleted                   0                       # number of work items this cpu completed
system.cpu0.kern.inst.arm                           0                       # number of arm instructions executed
system.cpu0.kern.inst.quiesce                       0                       # number of quiesce instructions executed
system.cpu0.committedInsts                 1994442913                       # Number of instructions committed
system.cpu0.committedOps                   3392923087                       # Number of ops (including micro ops) committed
system.cpu0.num_int_alu_accesses           2757567431                       # Number of integer alu accesses
system.cpu0.num_fp_alu_accesses            1010088632                       # Number of float alu accesses
system.cpu0.num_func_calls                   49946998                       # number of times a function call or return occured
system.cpu0.num_conditional_control_insts    199813072                       # number of instructions that are conditional controls
system.cpu0.num_int_insts                  2757567431                       # number of integer instructions
system.cpu0.num_fp_insts                   1010088632                       # number of float instructions
system.cpu0.num_int_register_reads         5218337389                       # number of times the integer registers were read
system.cpu0.num_int_register_writes        2052607234                       # number of times the integer registers were written
system.cpu0.num_fp_register_reads          1701898935                       # number of times the floating registers were read
system.cpu0.num_fp_register_writes          899765754                       # number of times the floating registers were written
system.cpu0.num_cc_register_reads          1288633550                       # number of times the CC registers were read
system.cpu0.num_cc_register_writes         1039374327                       # number of times the CC registers were written
system.cpu0.num_mem_refs                    738245434                       # number of memory refs
system.cpu0.num_load_insts                  571809501                       # Number of load instructions
system.cpu0.num_store_insts                 166435933                       # Number of store instructions
system.cpu0.num_idle_cycles              64530231.666183                       # Number of idle cycles
system.cpu0.num_busy_cycles              7151923853.333817                       # Number of busy cycles
system.cpu0.not_idle_fraction                0.991058                       # Percentage of non-idle cycles
system.cpu0.idle_fraction                    0.008942                       # Percentage of idle cycles
system.cpu0.Branches                        261172791                       # Number of branches fetched
system.cpu0.op_class::No_OpClass              1512149      0.04%      0.04% # Class of executed instruction
system.cpu0.op_class::IntAlu               2189292554     64.53%     64.57% # Class of executed instruction
system.cpu0.op_class::IntMult                24043366      0.71%     65.28% # Class of executed instruction
system.cpu0.op_class::IntDiv                   210284      0.01%     65.28% # Class of executed instruction
system.cpu0.op_class::FloatAdd              439619455     12.96%     78.24% # Class of executed instruction
system.cpu0.op_class::FloatCmp                      0      0.00%     78.24% # Class of executed instruction
system.cpu0.op_class::FloatCvt                      0      0.00%     78.24% # Class of executed instruction
system.cpu0.op_class::FloatMult                     0      0.00%     78.24% # Class of executed instruction
system.cpu0.op_class::FloatDiv                      0      0.00%     78.24% # Class of executed instruction
system.cpu0.op_class::FloatSqrt                     0      0.00%     78.24% # Class of executed instruction
system.cpu0.op_class::SimdAdd                       0      0.00%     78.24% # Class of executed instruction
system.cpu0.op_class::SimdAddAcc                    0      0.00%     78.24% # Class of executed instruction
system.cpu0.op_class::SimdAlu                       0      0.00%     78.24% # Class of executed instruction
system.cpu0.op_class::SimdCmp                       0      0.00%     78.24% # Class of executed instruction
system.cpu0.op_class::SimdCvt                       0      0.00%     78.24% # Class of executed instruction
system.cpu0.op_class::SimdMisc                      0      0.00%     78.24% # Class of executed instruction
system.cpu0.op_class::SimdMult                      0      0.00%     78.24% # Class of executed instruction
system.cpu0.op_class::SimdMultAcc                   0      0.00%     78.24% # Class of executed instruction
system.cpu0.op_class::SimdShift                     0      0.00%     78.24% # Class of executed instruction
system.cpu0.op_class::SimdShiftAcc                  0      0.00%     78.24% # Class of executed instruction
system.cpu0.op_class::SimdSqrt                      0      0.00%     78.24% # Class of executed instruction
system.cpu0.op_class::SimdFloatAdd                  0      0.00%     78.24% # Class of executed instruction
system.cpu0.op_class::SimdFloatAlu                  0      0.00%     78.24% # Class of executed instruction
system.cpu0.op_class::SimdFloatCmp                  0      0.00%     78.24% # Class of executed instruction
system.cpu0.op_class::SimdFloatCvt                  0      0.00%     78.24% # Class of executed instruction
system.cpu0.op_class::SimdFloatDiv                  0      0.00%     78.24% # Class of executed instruction
system.cpu0.op_class::SimdFloatMisc                 0      0.00%     78.24% # Class of executed instruction
system.cpu0.op_class::SimdFloatMult                 0      0.00%     78.24% # Class of executed instruction
system.cpu0.op_class::SimdFloatMultAcc              0      0.00%     78.24% # Class of executed instruction
system.cpu0.op_class::SimdFloatSqrt                 0      0.00%     78.24% # Class of executed instruction
system.cpu0.op_class::MemRead               571809501     16.85%     95.09% # Class of executed instruction
system.cpu0.op_class::MemWrite              166435933      4.91%    100.00% # Class of executed instruction
system.cpu0.op_class::IprAccess                     0      0.00%    100.00% # Class of executed instruction
system.cpu0.op_class::InstPrefetch                  0      0.00%    100.00% # Class of executed instruction
system.cpu0.op_class::total                3392923242                       # Class of executed instruction
system.cpu1.apic_clk_domain.clock                8000                       # Clock period in ticks
system.cpu1.numCycles                      7213576634                       # number of cpu cycles simulated
system.cpu1.numWorkItemsStarted                     0                       # number of work items this cpu started
system.cpu1.numWorkItemsCompleted                   0                       # number of work items this cpu completed
system.cpu1.kern.inst.arm                           0                       # number of arm instructions executed
system.cpu1.kern.inst.quiesce                       0                       # number of quiesce instructions executed
system.cpu1.committedInsts                    2718972                       # Number of instructions committed
system.cpu1.committedOps                      5824357                       # Number of ops (including micro ops) committed
system.cpu1.num_int_alu_accesses              5699524                       # Number of integer alu accesses
system.cpu1.num_fp_alu_accesses                    65                       # Number of float alu accesses
system.cpu1.num_func_calls                     158509                       # number of times a function call or return occured
system.cpu1.num_conditional_control_insts       418607                       # number of instructions that are conditional controls
system.cpu1.num_int_insts                     5699524                       # number of integer instructions
system.cpu1.num_fp_insts                           65                       # number of float instructions
system.cpu1.num_int_register_reads           11549532                       # number of times the integer registers were read
system.cpu1.num_int_register_writes           4724477                       # number of times the integer registers were written
system.cpu1.num_fp_register_reads                  82                       # number of times the floating registers were read
system.cpu1.num_fp_register_writes                 44                       # number of times the floating registers were written
system.cpu1.num_cc_register_reads             3321309                       # number of times the CC registers were read
system.cpu1.num_cc_register_writes            1745853                       # number of times the CC registers were written
system.cpu1.num_mem_refs                      1373583                       # number of memory refs
system.cpu1.num_load_insts                     853991                       # Number of load instructions
system.cpu1.num_store_insts                    519592                       # Number of store instructions
system.cpu1.num_idle_cycles              7202024326.508299                       # Number of idle cycles
system.cpu1.num_busy_cycles              11552307.491702                       # Number of busy cycles
system.cpu1.not_idle_fraction                0.001601                       # Percentage of non-idle cycles
system.cpu1.idle_fraction                    0.998399                       # Percentage of idle cycles
system.cpu1.Branches                           628558                       # Number of branches fetched
system.cpu1.op_class::No_OpClass               105569      1.81%      1.81% # Class of executed instruction
system.cpu1.op_class::IntAlu                  4295522     73.75%     75.56% # Class of executed instruction
system.cpu1.op_class::IntMult                   11634      0.20%     75.76% # Class of executed instruction
system.cpu1.op_class::IntDiv                    38047      0.65%     76.42% # Class of executed instruction
system.cpu1.op_class::FloatAdd                     22      0.00%     76.42% # Class of executed instruction
system.cpu1.op_class::FloatCmp                      0      0.00%     76.42% # Class of executed instruction
system.cpu1.op_class::FloatCvt                      0      0.00%     76.42% # Class of executed instruction
system.cpu1.op_class::FloatMult                     0      0.00%     76.42% # Class of executed instruction
system.cpu1.op_class::FloatDiv                      0      0.00%     76.42% # Class of executed instruction
system.cpu1.op_class::FloatSqrt                     0      0.00%     76.42% # Class of executed instruction
system.cpu1.op_class::SimdAdd                       0      0.00%     76.42% # Class of executed instruction
system.cpu1.op_class::SimdAddAcc                    0      0.00%     76.42% # Class of executed instruction
system.cpu1.op_class::SimdAlu                       0      0.00%     76.42% # Class of executed instruction
system.cpu1.op_class::SimdCmp                       0      0.00%     76.42% # Class of executed instruction
system.cpu1.op_class::SimdCvt                       0      0.00%     76.42% # Class of executed instruction
system.cpu1.op_class::SimdMisc                      0      0.00%     76.42% # Class of executed instruction
system.cpu1.op_class::SimdMult                      0      0.00%     76.42% # Class of executed instruction
system.cpu1.op_class::SimdMultAcc                   0      0.00%     76.42% # Class of executed instruction
system.cpu1.op_class::SimdShift                     0      0.00%     76.42% # Class of executed instruction
system.cpu1.op_class::SimdShiftAcc                  0      0.00%     76.42% # Class of executed instruction
system.cpu1.op_class::SimdSqrt                      0      0.00%     76.42% # Class of executed instruction
system.cpu1.op_class::SimdFloatAdd                  0      0.00%     76.42% # Class of executed instruction
system.cpu1.op_class::SimdFloatAlu                  0      0.00%     76.42% # Class of executed instruction
system.cpu1.op_class::SimdFloatCmp                  0      0.00%     76.42% # Class of executed instruction
system.cpu1.op_class::SimdFloatCvt                  0      0.00%     76.42% # Class of executed instruction
system.cpu1.op_class::SimdFloatDiv                  0      0.00%     76.42% # Class of executed instruction
system.cpu1.op_class::SimdFloatMisc                 0      0.00%     76.42% # Class of executed instruction
system.cpu1.op_class::SimdFloatMult                 0      0.00%     76.42% # Class of executed instruction
system.cpu1.op_class::SimdFloatMultAcc              0      0.00%     76.42% # Class of executed instruction
system.cpu1.op_class::SimdFloatSqrt                 0      0.00%     76.42% # Class of executed instruction
system.cpu1.op_class::MemRead                  853991     14.66%     91.08% # Class of executed instruction
system.cpu1.op_class::MemWrite                 519592      8.92%    100.00% # Class of executed instruction
system.cpu1.op_class::IprAccess                     0      0.00%    100.00% # Class of executed instruction
system.cpu1.op_class::InstPrefetch                  0      0.00%    100.00% # Class of executed instruction
system.cpu1.op_class::total                   5824377                       # Class of executed instruction
system.cpu2.apic_clk_domain.clock                8000                       # Clock period in ticks
system.cpu2.numCycles                      7214505001                       # number of cpu cycles simulated
system.cpu2.numWorkItemsStarted                     0                       # number of work items this cpu started
system.cpu2.numWorkItemsCompleted                   0                       # number of work items this cpu completed
system.cpu2.kern.inst.arm                           0                       # number of arm instructions executed
system.cpu2.kern.inst.quiesce                       0                       # number of quiesce instructions executed
system.cpu2.committedInsts                    3278568                       # Number of instructions committed
system.cpu2.committedOps                      6833368                       # Number of ops (including micro ops) committed
system.cpu2.num_int_alu_accesses              6697244                       # Number of integer alu accesses
system.cpu2.num_fp_alu_accesses                  1837                       # Number of float alu accesses
system.cpu2.num_func_calls                     173890                       # number of times a function call or return occured
system.cpu2.num_conditional_control_insts       506903                       # number of instructions that are conditional controls
system.cpu2.num_int_insts                     6697244                       # number of integer instructions
system.cpu2.num_fp_insts                         1837                       # number of float instructions
system.cpu2.num_int_register_reads           13590944                       # number of times the integer registers were read
system.cpu2.num_int_register_writes           5531400                       # number of times the integer registers were written
system.cpu2.num_fp_register_reads                3081                       # number of times the floating registers were read
system.cpu2.num_fp_register_writes               1457                       # number of times the floating registers were written
system.cpu2.num_cc_register_reads             3897082                       # number of times the CC registers were read
system.cpu2.num_cc_register_writes            2109766                       # number of times the CC registers were written
system.cpu2.num_mem_refs                      1598298                       # number of memory refs
system.cpu2.num_load_insts                     991108                       # Number of load instructions
system.cpu2.num_store_insts                    607190                       # Number of store instructions
system.cpu2.num_idle_cycles              7200404275.735943                       # Number of idle cycles
system.cpu2.num_busy_cycles              14100725.264058                       # Number of busy cycles
system.cpu2.not_idle_fraction                0.001954                       # Percentage of non-idle cycles
system.cpu2.idle_fraction                    0.998046                       # Percentage of idle cycles
system.cpu2.Branches                           739848                       # Number of branches fetched
system.cpu2.op_class::No_OpClass               111331      1.63%      1.63% # Class of executed instruction
system.cpu2.op_class::IntAlu                  5070590     74.20%     75.83% # Class of executed instruction
system.cpu2.op_class::IntMult                   12385      0.18%     76.01% # Class of executed instruction
system.cpu2.op_class::IntDiv                    39485      0.58%     76.59% # Class of executed instruction
system.cpu2.op_class::FloatAdd                   1366      0.02%     76.61% # Class of executed instruction
system.cpu2.op_class::FloatCmp                      0      0.00%     76.61% # Class of executed instruction
system.cpu2.op_class::FloatCvt                      0      0.00%     76.61% # Class of executed instruction
system.cpu2.op_class::FloatMult                     0      0.00%     76.61% # Class of executed instruction
system.cpu2.op_class::FloatDiv                      0      0.00%     76.61% # Class of executed instruction
system.cpu2.op_class::FloatSqrt                     0      0.00%     76.61% # Class of executed instruction
system.cpu2.op_class::SimdAdd                       0      0.00%     76.61% # Class of executed instruction
system.cpu2.op_class::SimdAddAcc                    0      0.00%     76.61% # Class of executed instruction
system.cpu2.op_class::SimdAlu                       0      0.00%     76.61% # Class of executed instruction
system.cpu2.op_class::SimdCmp                       0      0.00%     76.61% # Class of executed instruction
system.cpu2.op_class::SimdCvt                       0      0.00%     76.61% # Class of executed instruction
system.cpu2.op_class::SimdMisc                      0      0.00%     76.61% # Class of executed instruction
system.cpu2.op_class::SimdMult                      0      0.00%     76.61% # Class of executed instruction
system.cpu2.op_class::SimdMultAcc                   0      0.00%     76.61% # Class of executed instruction
system.cpu2.op_class::SimdShift                     0      0.00%     76.61% # Class of executed instruction
system.cpu2.op_class::SimdShiftAcc                  0      0.00%     76.61% # Class of executed instruction
system.cpu2.op_class::SimdSqrt                      0      0.00%     76.61% # Class of executed instruction
system.cpu2.op_class::SimdFloatAdd                  0      0.00%     76.61% # Class of executed instruction
system.cpu2.op_class::SimdFloatAlu                  0      0.00%     76.61% # Class of executed instruction
system.cpu2.op_class::SimdFloatCmp                  0      0.00%     76.61% # Class of executed instruction
system.cpu2.op_class::SimdFloatCvt                  0      0.00%     76.61% # Class of executed instruction
system.cpu2.op_class::SimdFloatDiv                  0      0.00%     76.61% # Class of executed instruction
system.cpu2.op_class::SimdFloatMisc                 0      0.00%     76.61% # Class of executed instruction
system.cpu2.op_class::SimdFloatMult                 0      0.00%     76.61% # Class of executed instruction
system.cpu2.op_class::SimdFloatMultAcc              0      0.00%     76.61% # Class of executed instruction
system.cpu2.op_class::SimdFloatSqrt                 0      0.00%     76.61% # Class of executed instruction
system.cpu2.op_class::MemRead                  991108     14.50%     91.11% # Class of executed instruction
system.cpu2.op_class::MemWrite                 607190      8.89%    100.00% # Class of executed instruction
system.cpu2.op_class::IprAccess                     0      0.00%    100.00% # Class of executed instruction
system.cpu2.op_class::InstPrefetch                  0      0.00%    100.00% # Class of executed instruction
system.cpu2.op_class::total                   6833455                       # Class of executed instruction
system.cpu3.apic_clk_domain.clock                8000                       # Clock period in ticks
system.cpu3.numCycles                      7214214398                       # number of cpu cycles simulated
system.cpu3.numWorkItemsStarted                     0                       # number of work items this cpu started
system.cpu3.numWorkItemsCompleted                   0                       # number of work items this cpu completed
system.cpu3.kern.inst.arm                           0                       # number of arm instructions executed
system.cpu3.kern.inst.quiesce                       0                       # number of quiesce instructions executed
system.cpu3.committedInsts                   19105573                       # Number of instructions committed
system.cpu3.committedOps                     33687901                       # Number of ops (including micro ops) committed
system.cpu3.num_int_alu_accesses             28301350                       # Number of integer alu accesses
system.cpu3.num_fp_alu_accesses               8399271                       # Number of float alu accesses
system.cpu3.num_func_calls                     575093                       # number of times a function call or return occured
system.cpu3.num_conditional_control_insts      2013406                       # number of instructions that are conditional controls
system.cpu3.num_int_insts                    28301350                       # number of integer instructions
system.cpu3.num_fp_insts                      8399271                       # number of float instructions
system.cpu3.num_int_register_reads           54571197                       # number of times the integer registers were read
system.cpu3.num_int_register_writes          21504657                       # number of times the integer registers were written
system.cpu3.num_fp_register_reads            14064247                       # number of times the floating registers were read
system.cpu3.num_fp_register_writes            7474237                       # number of times the floating registers were written
system.cpu3.num_cc_register_reads            13706873                       # number of times the CC registers were read
system.cpu3.num_cc_register_writes           10138415                       # number of times the CC registers were written
system.cpu3.num_mem_refs                      7545998                       # number of memory refs
system.cpu3.num_load_insts                    5636003                       # Number of load instructions
system.cpu3.num_store_insts                   1909995                       # Number of store instructions
system.cpu3.num_idle_cycles              7143217093.152037                       # Number of idle cycles
system.cpu3.num_busy_cycles              70997304.847963                       # Number of busy cycles
system.cpu3.not_idle_fraction                0.009841                       # Percentage of non-idle cycles
system.cpu3.idle_fraction                    0.990159                       # Percentage of idle cycles
system.cpu3.Branches                          2736579                       # Number of branches fetched
system.cpu3.op_class::No_OpClass               117953      0.35%      0.35% # Class of executed instruction
system.cpu3.op_class::IntAlu                 22153393     65.76%     66.11% # Class of executed instruction
system.cpu3.op_class::IntMult                  212592      0.63%     66.74% # Class of executed instruction
system.cpu3.op_class::IntDiv                    39811      0.12%     66.86% # Class of executed instruction
system.cpu3.op_class::FloatAdd                3618197     10.74%     77.60% # Class of executed instruction
system.cpu3.op_class::FloatCmp                      0      0.00%     77.60% # Class of executed instruction
system.cpu3.op_class::FloatCvt                      0      0.00%     77.60% # Class of executed instruction
system.cpu3.op_class::FloatMult                     0      0.00%     77.60% # Class of executed instruction
system.cpu3.op_class::FloatDiv                      0      0.00%     77.60% # Class of executed instruction
system.cpu3.op_class::FloatSqrt                     0      0.00%     77.60% # Class of executed instruction
system.cpu3.op_class::SimdAdd                       0      0.00%     77.60% # Class of executed instruction
system.cpu3.op_class::SimdAddAcc                    0      0.00%     77.60% # Class of executed instruction
system.cpu3.op_class::SimdAlu                       0      0.00%     77.60% # Class of executed instruction
system.cpu3.op_class::SimdCmp                       0      0.00%     77.60% # Class of executed instruction
system.cpu3.op_class::SimdCvt                       0      0.00%     77.60% # Class of executed instruction
system.cpu3.op_class::SimdMisc                      0      0.00%     77.60% # Class of executed instruction
system.cpu3.op_class::SimdMult                      0      0.00%     77.60% # Class of executed instruction
system.cpu3.op_class::SimdMultAcc                   0      0.00%     77.60% # Class of executed instruction
system.cpu3.op_class::SimdShift                     0      0.00%     77.60% # Class of executed instruction
system.cpu3.op_class::SimdShiftAcc                  0      0.00%     77.60% # Class of executed instruction
system.cpu3.op_class::SimdSqrt                      0      0.00%     77.60% # Class of executed instruction
system.cpu3.op_class::SimdFloatAdd                  0      0.00%     77.60% # Class of executed instruction
system.cpu3.op_class::SimdFloatAlu                  0      0.00%     77.60% # Class of executed instruction
system.cpu3.op_class::SimdFloatCmp                  0      0.00%     77.60% # Class of executed instruction
system.cpu3.op_class::SimdFloatCvt                  0      0.00%     77.60% # Class of executed instruction
system.cpu3.op_class::SimdFloatDiv                  0      0.00%     77.60% # Class of executed instruction
system.cpu3.op_class::SimdFloatMisc                 0      0.00%     77.60% # Class of executed instruction
system.cpu3.op_class::SimdFloatMult                 0      0.00%     77.60% # Class of executed instruction
system.cpu3.op_class::SimdFloatMultAcc              0      0.00%     77.60% # Class of executed instruction
system.cpu3.op_class::SimdFloatSqrt                 0      0.00%     77.60% # Class of executed instruction
system.cpu3.op_class::MemRead                 5636003     16.73%     94.33% # Class of executed instruction
system.cpu3.op_class::MemWrite                1909995      5.67%    100.00% # Class of executed instruction
system.cpu3.op_class::IprAccess                     0      0.00%    100.00% # Class of executed instruction
system.cpu3.op_class::InstPrefetch                  0      0.00%    100.00% # Class of executed instruction
system.cpu3.op_class::total                  33687944                       # Class of executed instruction
system.iobus.trans_dist::ReadReq                  111                       # Transaction distribution
system.iobus.trans_dist::ReadResp                 111                       # Transaction distribution
system.iobus.trans_dist::WriteReq                3733                       # Transaction distribution
system.iobus.trans_dist::WriteResp               3733                       # Transaction distribution
system.iobus.trans_dist::MessageReq                18                       # Transaction distribution
system.iobus.trans_dist::MessageResp               18                       # Transaction distribution
system.iobus.pkt_count_system.pc.south_bridge.io_apic.int_master::system.ruby.l1_cntrl0.sequencer.pio-slave-port            4                       # Packet count per connected master and slave (bytes)
system.iobus.pkt_count_system.pc.south_bridge.io_apic.int_master::system.ruby.l1_cntrl1.sequencer.pio-slave-port            2                       # Packet count per connected master and slave (bytes)
system.iobus.pkt_count_system.pc.south_bridge.io_apic.int_master::system.ruby.l1_cntrl2.sequencer.pio-slave-port            4                       # Packet count per connected master and slave (bytes)
system.iobus.pkt_count_system.pc.south_bridge.io_apic.int_master::system.ruby.l1_cntrl3.sequencer.pio-slave-port            4                       # Packet count per connected master and slave (bytes)
system.iobus.pkt_count_system.pc.south_bridge.io_apic.int_master::total           14                       # Packet count per connected master and slave (bytes)
system.iobus.pkt_count_system.ruby.l1_cntrl0.sequencer.mem-master-port::system.pc.south_bridge.ide.pio           12                       # Packet count per connected master and slave (bytes)
system.iobus.pkt_count_system.ruby.l1_cntrl0.sequencer.mem-master-port::system.pc.south_bridge.io_apic.pio            8                       # Packet count per connected master and slave (bytes)
system.iobus.pkt_count_system.ruby.l1_cntrl0.sequencer.mem-master-port::system.ruby.l1_cntrl0.sequencer.pio-slave-port         1834                       # Packet count per connected master and slave (bytes)
system.iobus.pkt_count_system.ruby.l1_cntrl0.sequencer.mem-master-port::system.ruby.l1_cntrl1.sequencer.pio-slave-port            6                       # Packet count per connected master and slave (bytes)
system.iobus.pkt_count_system.ruby.l1_cntrl0.sequencer.mem-master-port::system.ruby.l1_cntrl2.sequencer.pio-slave-port            2                       # Packet count per connected master and slave (bytes)
system.iobus.pkt_count_system.ruby.l1_cntrl0.sequencer.mem-master-port::system.ruby.l1_cntrl3.sequencer.pio-slave-port            4                       # Packet count per connected master and slave (bytes)
system.iobus.pkt_count_system.ruby.l1_cntrl0.sequencer.mem-master-port::total         1866                       # Packet count per connected master and slave (bytes)
system.iobus.pkt_count_system.ruby.l1_cntrl1.sequencer.mem-master-port::system.pc.south_bridge.ide.pio           80                       # Packet count per connected master and slave (bytes)
system.iobus.pkt_count_system.ruby.l1_cntrl1.sequencer.mem-master-port::system.pc.com_1.pio            2                       # Packet count per connected master and slave (bytes)
system.iobus.pkt_count_system.ruby.l1_cntrl1.sequencer.mem-master-port::system.ruby.l1_cntrl1.sequencer.pio-slave-port         1822                       # Packet count per connected master and slave (bytes)
system.iobus.pkt_count_system.ruby.l1_cntrl1.sequencer.mem-master-port::system.ruby.l1_cntrl2.sequencer.pio-slave-port            2                       # Packet count per connected master and slave (bytes)
system.iobus.pkt_count_system.ruby.l1_cntrl1.sequencer.mem-master-port::total         1906                       # Packet count per connected master and slave (bytes)
system.iobus.pkt_count_system.ruby.l1_cntrl2.sequencer.mem-master-port::system.pc.south_bridge.ide.pio           46                       # Packet count per connected master and slave (bytes)
system.iobus.pkt_count_system.ruby.l1_cntrl2.sequencer.mem-master-port::system.pc.south_bridge.io_apic.pio            6                       # Packet count per connected master and slave (bytes)
system.iobus.pkt_count_system.ruby.l1_cntrl2.sequencer.mem-master-port::system.pc.com_1.pio          174                       # Packet count per connected master and slave (bytes)
system.iobus.pkt_count_system.ruby.l1_cntrl2.sequencer.mem-master-port::system.ruby.l1_cntrl1.sequencer.pio-slave-port            2                       # Packet count per connected master and slave (bytes)
system.iobus.pkt_count_system.ruby.l1_cntrl2.sequencer.mem-master-port::system.ruby.l1_cntrl2.sequencer.pio-slave-port         1824                       # Packet count per connected master and slave (bytes)
system.iobus.pkt_count_system.ruby.l1_cntrl2.sequencer.mem-master-port::system.ruby.l1_cntrl3.sequencer.pio-slave-port            2                       # Packet count per connected master and slave (bytes)
system.iobus.pkt_count_system.ruby.l1_cntrl2.sequencer.mem-master-port::total         2054                       # Packet count per connected master and slave (bytes)
system.iobus.pkt_count_system.ruby.l1_cntrl3.sequencer.mem-master-port::system.pc.south_bridge.ide.pio           46                       # Packet count per connected master and slave (bytes)
system.iobus.pkt_count_system.ruby.l1_cntrl3.sequencer.mem-master-port::system.pc.south_bridge.io_apic.pio            8                       # Packet count per connected master and slave (bytes)
system.iobus.pkt_count_system.ruby.l1_cntrl3.sequencer.mem-master-port::system.ruby.l1_cntrl0.sequencer.pio-slave-port            2                       # Packet count per connected master and slave (bytes)
system.iobus.pkt_count_system.ruby.l1_cntrl3.sequencer.mem-master-port::system.ruby.l1_cntrl1.sequencer.pio-slave-port            2                       # Packet count per connected master and slave (bytes)
system.iobus.pkt_count_system.ruby.l1_cntrl3.sequencer.mem-master-port::system.ruby.l1_cntrl3.sequencer.pio-slave-port         1826                       # Packet count per connected master and slave (bytes)
system.iobus.pkt_count_system.ruby.l1_cntrl3.sequencer.mem-master-port::total         1884                       # Packet count per connected master and slave (bytes)
system.iobus.pkt_count::total                    7724                       # Packet count per connected master and slave (bytes)
system.iobus.pkt_size_system.pc.south_bridge.io_apic.int_master::system.ruby.l1_cntrl0.sequencer.pio-slave-port            8                       # Cumulative packet size per connected master and slave (bytes)
system.iobus.pkt_size_system.pc.south_bridge.io_apic.int_master::system.ruby.l1_cntrl1.sequencer.pio-slave-port            4                       # Cumulative packet size per connected master and slave (bytes)
system.iobus.pkt_size_system.pc.south_bridge.io_apic.int_master::system.ruby.l1_cntrl2.sequencer.pio-slave-port            8                       # Cumulative packet size per connected master and slave (bytes)
system.iobus.pkt_size_system.pc.south_bridge.io_apic.int_master::system.ruby.l1_cntrl3.sequencer.pio-slave-port            8                       # Cumulative packet size per connected master and slave (bytes)
system.iobus.pkt_size_system.pc.south_bridge.io_apic.int_master::total           28                       # Cumulative packet size per connected master and slave (bytes)
system.iobus.pkt_size_system.ruby.l1_cntrl0.sequencer.mem-master-port::system.pc.south_bridge.ide.pio            6                       # Cumulative packet size per connected master and slave (bytes)
system.iobus.pkt_size_system.ruby.l1_cntrl0.sequencer.mem-master-port::system.pc.south_bridge.io_apic.pio           16                       # Cumulative packet size per connected master and slave (bytes)
system.iobus.pkt_size_system.ruby.l1_cntrl0.sequencer.mem-master-port::system.ruby.l1_cntrl0.sequencer.pio-slave-port         3668                       # Cumulative packet size per connected master and slave (bytes)
system.iobus.pkt_size_system.ruby.l1_cntrl0.sequencer.mem-master-port::system.ruby.l1_cntrl1.sequencer.pio-slave-port           12                       # Cumulative packet size per connected master and slave (bytes)
system.iobus.pkt_size_system.ruby.l1_cntrl0.sequencer.mem-master-port::system.ruby.l1_cntrl2.sequencer.pio-slave-port            4                       # Cumulative packet size per connected master and slave (bytes)
system.iobus.pkt_size_system.ruby.l1_cntrl0.sequencer.mem-master-port::system.ruby.l1_cntrl3.sequencer.pio-slave-port            8                       # Cumulative packet size per connected master and slave (bytes)
system.iobus.pkt_size_system.ruby.l1_cntrl0.sequencer.mem-master-port::total         3714                       # Cumulative packet size per connected master and slave (bytes)
system.iobus.pkt_size_system.ruby.l1_cntrl1.sequencer.mem-master-port::system.pc.south_bridge.ide.pio           46                       # Cumulative packet size per connected master and slave (bytes)
system.iobus.pkt_size_system.ruby.l1_cntrl1.sequencer.mem-master-port::system.pc.com_1.pio            1                       # Cumulative packet size per connected master and slave (bytes)
system.iobus.pkt_size_system.ruby.l1_cntrl1.sequencer.mem-master-port::system.ruby.l1_cntrl1.sequencer.pio-slave-port         3644                       # Cumulative packet size per connected master and slave (bytes)
system.iobus.pkt_size_system.ruby.l1_cntrl1.sequencer.mem-master-port::system.ruby.l1_cntrl2.sequencer.pio-slave-port            4                       # Cumulative packet size per connected master and slave (bytes)
system.iobus.pkt_size_system.ruby.l1_cntrl1.sequencer.mem-master-port::total         3695                       # Cumulative packet size per connected master and slave (bytes)
system.iobus.pkt_size_system.ruby.l1_cntrl2.sequencer.mem-master-port::system.pc.south_bridge.ide.pio           26                       # Cumulative packet size per connected master and slave (bytes)
system.iobus.pkt_size_system.ruby.l1_cntrl2.sequencer.mem-master-port::system.pc.south_bridge.io_apic.pio           12                       # Cumulative packet size per connected master and slave (bytes)
system.iobus.pkt_size_system.ruby.l1_cntrl2.sequencer.mem-master-port::system.pc.com_1.pio           87                       # Cumulative packet size per connected master and slave (bytes)
system.iobus.pkt_size_system.ruby.l1_cntrl2.sequencer.mem-master-port::system.ruby.l1_cntrl1.sequencer.pio-slave-port            4                       # Cumulative packet size per connected master and slave (bytes)
system.iobus.pkt_size_system.ruby.l1_cntrl2.sequencer.mem-master-port::system.ruby.l1_cntrl2.sequencer.pio-slave-port         3648                       # Cumulative packet size per connected master and slave (bytes)
system.iobus.pkt_size_system.ruby.l1_cntrl2.sequencer.mem-master-port::system.ruby.l1_cntrl3.sequencer.pio-slave-port            4                       # Cumulative packet size per connected master and slave (bytes)
system.iobus.pkt_size_system.ruby.l1_cntrl2.sequencer.mem-master-port::total         3781                       # Cumulative packet size per connected master and slave (bytes)
system.iobus.pkt_size_system.ruby.l1_cntrl3.sequencer.mem-master-port::system.pc.south_bridge.ide.pio           26                       # Cumulative packet size per connected master and slave (bytes)
system.iobus.pkt_size_system.ruby.l1_cntrl3.sequencer.mem-master-port::system.pc.south_bridge.io_apic.pio           16                       # Cumulative packet size per connected master and slave (bytes)
system.iobus.pkt_size_system.ruby.l1_cntrl3.sequencer.mem-master-port::system.ruby.l1_cntrl0.sequencer.pio-slave-port            4                       # Cumulative packet size per connected master and slave (bytes)
system.iobus.pkt_size_system.ruby.l1_cntrl3.sequencer.mem-master-port::system.ruby.l1_cntrl1.sequencer.pio-slave-port            4                       # Cumulative packet size per connected master and slave (bytes)
system.iobus.pkt_size_system.ruby.l1_cntrl3.sequencer.mem-master-port::system.ruby.l1_cntrl3.sequencer.pio-slave-port         3652                       # Cumulative packet size per connected master and slave (bytes)
system.iobus.pkt_size_system.ruby.l1_cntrl3.sequencer.mem-master-port::total         3702                       # Cumulative packet size per connected master and slave (bytes)
system.iobus.pkt_size::total                    14920                       # Cumulative packet size per connected master and slave (bytes)
system.iobus.reqLayer2.occupancy               159000                       # Layer occupancy (ticks)
system.iobus.reqLayer2.utilization                0.0                       # Layer utilization (%)
system.iobus.reqLayer8.occupancy                20497                       # Layer occupancy (ticks)
system.iobus.reqLayer8.utilization                0.0                       # Layer utilization (%)
system.iobus.reqLayer12.occupancy              112000                       # Layer occupancy (ticks)
system.iobus.reqLayer12.utilization               0.0                       # Layer utilization (%)
system.iobus.reqLayer17.occupancy             2027480                       # Layer occupancy (ticks)
system.iobus.reqLayer17.utilization               0.0                       # Layer utilization (%)
system.iobus.reqLayer18.occupancy             2288498                       # Layer occupancy (ticks)
system.iobus.reqLayer18.utilization               0.0                       # Layer utilization (%)
system.iobus.reqLayer19.occupancy             2283496                       # Layer occupancy (ticks)
system.iobus.reqLayer19.utilization               0.0                       # Layer utilization (%)
system.iobus.reqLayer20.occupancy             2286993                       # Layer occupancy (ticks)
system.iobus.reqLayer20.utilization               0.0                       # Layer utilization (%)
system.iobus.respLayer0.occupancy               11996                       # Layer occupancy (ticks)
system.iobus.respLayer0.utilization               0.0                       # Layer utilization (%)
system.iobus.respLayer2.occupancy             1401000                       # Layer occupancy (ticks)
system.iobus.respLayer2.utilization               0.0                       # Layer utilization (%)
system.iobus.respLayer4.occupancy             1421500                       # Layer occupancy (ticks)
system.iobus.respLayer4.utilization               0.0                       # Layer utilization (%)
system.iobus.respLayer6.occupancy             1559000                       # Layer occupancy (ticks)
system.iobus.respLayer6.utilization               0.0                       # Layer utilization (%)
system.iobus.respLayer8.occupancy             1410500                       # Layer occupancy (ticks)
system.iobus.respLayer8.utilization               0.0                       # Layer utilization (%)
system.pc.south_bridge.ide.disks.dma_read_full_pages            1                       # Number of full page size DMA reads (not PRD).
system.pc.south_bridge.ide.disks.dma_read_bytes         4096                       # Number of bytes transfered via DMA reads (not PRD).
system.pc.south_bridge.ide.disks.dma_read_txs            1                       # Number of DMA read transactions (not PRD).
system.pc.south_bridge.ide.disks.dma_write_full_pages           45                       # Number of full page size DMA writes.
system.pc.south_bridge.ide.disks.dma_write_bytes       184320                       # Number of bytes transfered via DMA writes.
system.pc.south_bridge.ide.disks.dma_write_txs           45                       # Number of DMA write transactions.
system.ruby.clk_domain.clock                      500                       # Clock period in ticks
system.ruby.delayHist::bucket_size                  4                       # delay histogram for all message
system.ruby.delayHist::max_bucket                  39                       # delay histogram for all message
system.ruby.delayHist::samples               13902500                       # delay histogram for all message
system.ruby.delayHist::mean                  0.718506                       # delay histogram for all message
system.ruby.delayHist::stdev                 2.286325                       # delay histogram for all message
[...]
system.ruby.DMA_Controller.READY.ReadRequest |          96    100.00%    100.00% |           0      0.00%    100.00%
system.ruby.DMA_Controller.READY.ReadRequest::total           96                      
system.ruby.DMA_Controller.READY.WriteRequest |        3008    100.00%    100.00% |           0      0.00%    100.00%
system.ruby.DMA_Controller.READY.WriteRequest::total         3008                      
system.ruby.DMA_Controller.BUSY_RD.Data  |          96    100.00%    100.00% |           0      0.00%    100.00%
system.ruby.DMA_Controller.BUSY_RD.Data::total           96                      
system.ruby.DMA_Controller.BUSY_WR.Ack   |        3008    100.00%    100.00% |           0      0.00%    100.00%
system.ruby.DMA_Controller.BUSY_WR.Ack::total         3008                      
system.ruby.L1Cache_Controller.Load      |   566652679     98.48%     98.48% |     1288090      0.22%     98.71% |     1566020      0.27%     98.98% |     5872248      1.02%    100.00%
system.ruby.L1Cache_Controller.Load::total    575379037                      
system.ruby.L1Cache_Controller.Ifetch    |18446744072223193088    100.00%    100.00% |     6122796      0.00%    100.00% |     7794719      0.00%    100.00% |    28394784      0.00%    100.00%
system.ruby.L1Cache_Controller.Ifetch::total 18446744072265506816                      
system.ruby.L1Cache_Controller.Store     |   172563638     97.53%     97.53% |      979468      0.55%     98.08% |     1136070      0.64%     98.72% |     2258796      1.28%    100.00%
system.ruby.L1Cache_Controller.Store::total    176937972                      
system.ruby.L1Cache_Controller.Inv       |       10035     12.46%     12.46% |       23527     29.20%     41.66% |       24887     30.89%     72.55% |       22112     27.45%    100.00%
system.ruby.L1Cache_Controller.Inv::total        80561                      
system.ruby.L1Cache_Controller.L1_Replacement |     3562825     91.30%     91.30% |       82143      2.11%     93.41% |      127509      3.27%     96.68% |      129711      3.32%    100.00%
system.ruby.L1Cache_Controller.L1_Replacement::total      3902188                      
system.ruby.L1Cache_Controller.Fwd_GETX  |        1737     26.36%     26.36% |        1398     21.22%     47.58% |        1407     21.35%     68.93% |        2047     31.07%    100.00%
system.ruby.L1Cache_Controller.Fwd_GETX::total         6589                      
system.ruby.L1Cache_Controller.Fwd_GETS  |        6273     22.71%     22.71% |        7127     25.80%     48.51% |        5763     20.86%     69.37% |        8461     30.63%    100.00%
system.ruby.L1Cache_Controller.Fwd_GETS::total        27624                      
system.ruby.L1Cache_Controller.Data      |        2462     38.47%     38.47% |         963     15.05%     53.52% |        2023     31.61%     85.14% |         951     14.86%    100.00%
system.ruby.L1Cache_Controller.Data::total         6399                      
system.ruby.L1Cache_Controller.Data_Exclusive |     1040394     92.62%     92.62% |       14152      1.26%     93.88% |       29864      2.66%     96.54% |       38880      3.46%    100.00%
system.ruby.L1Cache_Controller.Data_Exclusive::total      1123290                      
system.ruby.L1Cache_Controller.DataS_fromL1 |        2465      8.92%      8.92% |        7447     26.96%     35.88% |        7948     28.77%     64.65% |        9764     35.35%    100.00%
system.ruby.L1Cache_Controller.DataS_fromL1::total        27624                      
system.ruby.L1Cache_Controller.Data_all_Acks |     2520430     90.94%     90.94% |       66794      2.41%     93.35% |       96167      3.47%     96.82% |       88141      3.18%    100.00%
system.ruby.L1Cache_Controller.Data_all_Acks::total      2771532                      
system.ruby.L1Cache_Controller.Ack       |       20074     45.90%     45.90% |        7877     18.01%     63.91% |        7617     17.42%     81.32% |        8168     18.68%    100.00%
system.ruby.L1Cache_Controller.Ack::total        43736                      
system.ruby.L1Cache_Controller.Ack_all   |        9224     36.22%     36.22% |        5125     20.13%     56.35% |        5805     22.80%     79.14% |        5311     20.86%    100.00%
system.ruby.L1Cache_Controller.Ack_all::total        25465                      
system.ruby.L1Cache_Controller.WB_Ack    |     2008140     94.19%     94.19% |       19600      0.92%     95.11% |       43534      2.04%     97.15% |       60682      2.85%    100.00%
system.ruby.L1Cache_Controller.WB_Ack::total      2131956                      
system.ruby.L1Cache_Controller.NP.Load   |     1485795     92.09%     92.09% |       28413      1.76%     93.85% |       46735      2.90%     96.75% |       52411      3.25%    100.00%
system.ruby.L1Cache_Controller.NP.Load::total      1613354                      
system.ruby.L1Cache_Controller.NP.Ifetch |     1107489     87.72%     87.72% |       43004      3.41%     91.13% |       62412      4.94%     96.07% |       49567      3.93%    100.00%
system.ruby.L1Cache_Controller.NP.Ifetch::total      1262472                      
system.ruby.L1Cache_Controller.NP.Store  |      970059     94.46%     94.46% |       10726      1.04%     95.50% |       18479      1.80%     97.30% |       27733      2.70%    100.00%
system.ruby.L1Cache_Controller.NP.Store::total      1026997                      
system.ruby.L1Cache_Controller.NP.Inv    |        5256     17.55%     17.55% |        8331     27.82%     45.37% |        9683     32.34%     77.71% |        6674     22.29%    100.00%
system.ruby.L1Cache_Controller.NP.Inv::total        29944                      
system.ruby.L1Cache_Controller.I.Load    |        1078      5.09%      5.09% |        6283     29.65%     34.73% |        7285     34.37%     69.10% |        6548     30.90%    100.00%
system.ruby.L1Cache_Controller.I.Load::total        21194                      
system.ruby.L1Cache_Controller.I.Ifetch  |          71     21.45%     21.45% |          86     25.98%     47.43% |          78     23.56%     71.00% |          96     29.00%    100.00%
system.ruby.L1Cache_Controller.I.Ifetch::total          331                      
system.ruby.L1Cache_Controller.I.Store   |        1259     28.00%     28.00% |         844     18.77%     46.76% |        1013     22.53%     69.29% |        1381     30.71%    100.00%
system.ruby.L1Cache_Controller.I.Store::total         4497                      
system.ruby.L1Cache_Controller.I.L1_Replacement |        3801     12.63%     12.63% |        9099     30.23%     42.85% |        8488     28.20%     71.05% |        8716     28.95%    100.00%
system.ruby.L1Cache_Controller.I.L1_Replacement::total        30104                      
system.ruby.L1Cache_Controller.S.Load    |   140420841     99.15%     99.15% |      233601      0.16%     99.32% |      249636      0.18%     99.49% |      716260      0.51%    100.00%
system.ruby.L1Cache_Controller.S.Load::total    141620338                      
system.ruby.L1Cache_Controller.S.Ifetch  |18446744072222087168    100.00%    100.00% |     6079706      0.00%    100.00% |     7732229      0.00%    100.00% |    28345121      0.00%    100.00%
system.ruby.L1Cache_Controller.S.Ifetch::total 18446744072264245248                      
system.ruby.L1Cache_Controller.S.Store   |        6762     35.47%     35.47% |        4162     21.83%     57.30% |        3782     19.84%     77.13% |        4360     22.87%    100.00%
system.ruby.L1Cache_Controller.S.Store::total        19066                      
system.ruby.L1Cache_Controller.S.Inv     |        2694      6.30%      6.30% |       13250     31.00%     37.31% |       13299     31.12%     68.42% |       13496     31.58%    100.00%
system.ruby.L1Cache_Controller.S.Inv::total        42739                      
system.ruby.L1Cache_Controller.S.L1_Replacement |     1550884     89.12%     89.12% |       53444      3.07%     92.20% |       75487      4.34%     96.53% |       60313      3.47%    100.00%
system.ruby.L1Cache_Controller.S.L1_Replacement::total      1740128                      
system.ruby.L1Cache_Controller.E.Load    |    81274896     97.53%     97.53% |      155743      0.19%     97.72% |      277201      0.33%     98.05% |     1626954      1.95%    100.00%
system.ruby.L1Cache_Controller.E.Load::total     83334794                      
system.ruby.L1Cache_Controller.E.Store   |      231040     92.20%     92.20% |        2872      1.15%     93.35% |        8274      3.30%     96.65% |        8399      3.35%    100.00%
system.ruby.L1Cache_Controller.E.Store::total       250585                      
system.ruby.L1Cache_Controller.E.Inv     |         655     22.95%     22.95% |         748     26.21%     49.16% |         676     23.69%     72.85% |         775     27.15%    100.00%
system.ruby.L1Cache_Controller.E.Inv::total         2854                      
system.ruby.L1Cache_Controller.E.L1_Replacement |      807830     94.24%     94.24% |        6326      0.74%     94.98% |       17924      2.09%     97.07% |       25143      2.93%    100.00%
system.ruby.L1Cache_Controller.E.L1_Replacement::total       857223                      
system.ruby.L1Cache_Controller.E.Fwd_GETX |         339     44.26%     44.26% |         170     22.19%     66.45% |          87     11.36%     77.81% |         170     22.19%    100.00%
system.ruby.L1Cache_Controller.E.Fwd_GETX::total          766                      
system.ruby.L1Cache_Controller.E.Fwd_GETS |         541      4.63%      4.63% |        3911     33.46%     38.09% |        2449     20.95%     59.05% |        4786     40.95%    100.00%
system.ruby.L1Cache_Controller.E.Fwd_GETS::total        11687                      
system.ruby.L1Cache_Controller.M.Load    |   343470069     98.47%     98.47% |      864050      0.25%     98.72% |      985163      0.28%     99.01% |     3470075      0.99%    100.00%
system.ruby.L1Cache_Controller.M.Load::total    348789357                      
system.ruby.L1Cache_Controller.M.Store   |   171354518     97.56%     97.56% |      960864      0.55%     98.11% |     1104522      0.63%     98.74% |     2216923      1.26%    100.00%
system.ruby.L1Cache_Controller.M.Store::total    175636827                      
system.ruby.L1Cache_Controller.M.Inv     |        1430     28.47%     28.47% |        1198     23.85%     52.32% |        1229     24.47%     76.79% |        1166     23.21%    100.00%
system.ruby.L1Cache_Controller.M.Inv::total         5023                      
system.ruby.L1Cache_Controller.M.L1_Replacement |     1200310     94.16%     94.16% |       13274      1.04%     95.20% |       25610      2.01%     97.21% |       35539      2.79%    100.00%
system.ruby.L1Cache_Controller.M.L1_Replacement::total      1274733                      
system.ruby.L1Cache_Controller.M.Fwd_GETX |        1398     24.01%     24.01% |        1228     21.09%     45.10% |        1320     22.67%     67.77% |        1877     32.23%    100.00%
system.ruby.L1Cache_Controller.M.Fwd_GETX::total         5823                      
system.ruby.L1Cache_Controller.M.Fwd_GETS |        5732     35.97%     35.97% |        3216     20.18%     56.15% |        3314     20.79%     76.94% |        3675     23.06%    100.00%
system.ruby.L1Cache_Controller.M.Fwd_GETS::total        15937                      
system.ruby.L1Cache_Controller.IS.Data_Exclusive |     1040394     92.62%     92.62% |       14152      1.26%     93.88% |       29864      2.66%     96.54% |       38880      3.46%    100.00%
system.ruby.L1Cache_Controller.IS.Data_Exclusive::total      1123290                      
system.ruby.L1Cache_Controller.IS.DataS_fromL1 |        2465      8.92%      8.92% |        7447     26.96%     35.88% |        7948     28.77%     64.65% |        9764     35.35%    100.00%
system.ruby.L1Cache_Controller.IS.DataS_fromL1::total        27624                      
system.ruby.L1Cache_Controller.IS.Data_all_Acks |     1551574     88.84%     88.84% |       56187      3.22%     92.06% |       78698      4.51%     96.57% |       59978      3.43%    100.00%
system.ruby.L1Cache_Controller.IS.Data_all_Acks::total      1746437                      
system.ruby.L1Cache_Controller.IM.Data   |        2462     38.47%     38.47% |         963     15.05%     53.52% |        2023     31.61%     85.14% |         951     14.86%    100.00%
system.ruby.L1Cache_Controller.IM.Data::total         6399                      
system.ruby.L1Cache_Controller.IM.Data_all_Acks |      968856     94.51%     94.51% |       10607      1.03%     95.55% |       17469      1.70%     97.25% |       28163      2.75%    100.00%
system.ruby.L1Cache_Controller.IM.Data_all_Acks::total      1025095                      
system.ruby.L1Cache_Controller.SM.Ack    |       20074     45.90%     45.90% |        7877     18.01%     63.91% |        7617     17.42%     81.32% |        8168     18.68%    100.00%
system.ruby.L1Cache_Controller.SM.Ack::total        43736                      
system.ruby.L1Cache_Controller.SM.Ack_all |        9224     36.22%     36.22% |        5125     20.13%     56.35% |        5805     22.80%     79.14% |        5311     20.86%    100.00%
system.ruby.L1Cache_Controller.SM.Ack_all::total        25465                      
system.ruby.L1Cache_Controller.M_I.Inv   |           0      0.00%      0.00% |           0      0.00%      0.00% |           0      0.00%      0.00% |           1    100.00%    100.00%
system.ruby.L1Cache_Controller.M_I.Inv::total            1                      
system.ruby.L1Cache_Controller.M_I.WB_Ack |     2008140     94.19%     94.19% |       19600      0.92%     95.11% |       43534      2.04%     97.15% |       60681      2.85%    100.00%
system.ruby.L1Cache_Controller.M_I.WB_Ack::total      2131955                      
system.ruby.L1Cache_Controller.SINK_WB_ACK.WB_Ack |           0      0.00%      0.00% |           0      0.00%      0.00% |           0      0.00%      0.00% |           1    100.00%    100.00%
system.ruby.L1Cache_Controller.SINK_WB_ACK.WB_Ack::total            1                      
system.ruby.L2Cache_Controller.L1_GET_INSTR      1262803      0.00%      0.00%
system.ruby.L2Cache_Controller.L1_GETS        1635157      0.00%      0.00%
system.ruby.L2Cache_Controller.L1_GETX        1031502      0.00%      0.00%
system.ruby.L2Cache_Controller.L1_UPGRADE        19066      0.00%      0.00%
system.ruby.L2Cache_Controller.L1_PUTX        2131955      0.00%      0.00%
system.ruby.L2Cache_Controller.L1_PUTX_old            2      0.00%      0.00%
system.ruby.L2Cache_Controller.L2_Replacement        34739      0.00%      0.00%
system.ruby.L2Cache_Controller.L2_Replacement_clean        34666      0.00%      0.00%
system.ruby.L2Cache_Controller.Mem_Data         78496      0.00%      0.00%
system.ruby.L2Cache_Controller.Mem_Ack          69453      0.00%      0.00%
system.ruby.L2Cache_Controller.WB_Data          20961      0.00%      0.00%
system.ruby.L2Cache_Controller.WB_Data_clean        11687      0.00%      0.00%
system.ruby.L2Cache_Controller.Ack               9690      0.00%      0.00%
system.ruby.L2Cache_Controller.Ack_all          15712      0.00%      0.00%
system.ruby.L2Cache_Controller.Unblock          27624      0.00%      0.00%
system.ruby.L2Cache_Controller.Exclusive_Unblock      2173850      0.00%      0.00%
system.ruby.L2Cache_Controller.MEM_Inv             96      0.00%      0.00%
system.ruby.L2Cache_Controller.NP.L1_GET_INSTR        12531      0.00%      0.00%
system.ruby.L2Cache_Controller.NP.L1_GETS        33299      0.00%      0.00%
system.ruby.L2Cache_Controller.NP.L1_GETX        32666      0.00%      0.00%
system.ruby.L2Cache_Controller.NP.L1_PUTX_old            1      0.00%      0.00%
system.ruby.L2Cache_Controller.SS.L1_GET_INSTR      1250259      0.00%      0.00%
system.ruby.L2Cache_Controller.SS.L1_GETS       483619      0.00%      0.00%
system.ruby.L2Cache_Controller.SS.L1_GETX         6399      0.00%      0.00%
system.ruby.L2Cache_Controller.SS.L1_UPGRADE        19066      0.00%      0.00%
system.ruby.L2Cache_Controller.SS.L2_Replacement          680      0.00%      0.00%
system.ruby.L2Cache_Controller.SS.L2_Replacement_clean        12178      0.00%      0.00%
system.ruby.L2Cache_Controller.M.L1_GET_INSTR            5      0.00%      0.00%
system.ruby.L2Cache_Controller.M.L1_GETS      1089998      0.00%      0.00%
system.ruby.L2Cache_Controller.M.L1_GETX       985840      0.00%      0.00%
system.ruby.L2Cache_Controller.M.L2_Replacement        32791      0.00%      0.00%
system.ruby.L2Cache_Controller.M.L2_Replacement_clean        15887      0.00%      0.00%
system.ruby.L2Cache_Controller.M.MEM_Inv           39      0.00%      0.00%
system.ruby.L2Cache_Controller.MT.L1_GETS        27624      0.00%      0.00%
system.ruby.L2Cache_Controller.MT.L1_GETX         6589      0.00%      0.00%
system.ruby.L2Cache_Controller.MT.L1_PUTX      2131955      0.00%      0.00%
system.ruby.L2Cache_Controller.MT.L2_Replacement         1268      0.00%      0.00%
system.ruby.L2Cache_Controller.MT.L2_Replacement_clean         6601      0.00%      0.00%
system.ruby.L2Cache_Controller.MT.MEM_Inv            9      0.00%      0.00%
system.ruby.L2Cache_Controller.M_I.L1_GETS            2      0.00%      0.00%
system.ruby.L2Cache_Controller.M_I.L1_GETX            2      0.00%      0.00%
system.ruby.L2Cache_Controller.M_I.Mem_Ack        69453      0.00%      0.00%
system.ruby.L2Cache_Controller.M_I.MEM_Inv           39      0.00%      0.00%
system.ruby.L2Cache_Controller.MT_I.WB_Data          880      0.00%      0.00%
system.ruby.L2Cache_Controller.MT_I.Ack_all          397      0.00%      0.00%
system.ruby.L2Cache_Controller.MT_I.MEM_Inv            9      0.00%      0.00%
system.ruby.L2Cache_Controller.MCT_I.L1_PUTX_old            1      0.00%      0.00%
system.ruby.L2Cache_Controller.MCT_I.WB_Data         4144      0.00%      0.00%
system.ruby.L2Cache_Controller.MCT_I.Ack_all         2457      0.00%      0.00%
system.ruby.L2Cache_Controller.I_I.Ack           8932      0.00%      0.00%
system.ruby.L2Cache_Controller.I_I.Ack_all        12178      0.00%      0.00%
system.ruby.L2Cache_Controller.S_I.Ack            758      0.00%      0.00%
system.ruby.L2Cache_Controller.S_I.Ack_all          680      0.00%      0.00%
system.ruby.L2Cache_Controller.ISS.L1_GETS            7      0.00%      0.00%
system.ruby.L2Cache_Controller.ISS.Mem_Data        33292      0.00%      0.00%
system.ruby.L2Cache_Controller.IS.L1_GET_INSTR            8      0.00%      0.00%
system.ruby.L2Cache_Controller.IS.L1_GETS            1      0.00%      0.00%
system.ruby.L2Cache_Controller.IS.Mem_Data        12538      0.00%      0.00%
system.ruby.L2Cache_Controller.IM.Mem_Data        32666      0.00%      0.00%
system.ruby.L2Cache_Controller.SS_MB.L1_GETS           61      0.00%      0.00%
system.ruby.L2Cache_Controller.SS_MB.L1_GETX            1      0.00%      0.00%
system.ruby.L2Cache_Controller.SS_MB.Exclusive_Unblock        25465      0.00%      0.00%
system.ruby.L2Cache_Controller.MT_MB.L1_GETS          542      0.00%      0.00%
system.ruby.L2Cache_Controller.MT_MB.L1_GETX            3      0.00%      0.00%
system.ruby.L2Cache_Controller.MT_MB.Exclusive_Unblock      2148385      0.00%      0.00%
system.ruby.L2Cache_Controller.MT_IIB.L1_GETS            4      0.00%      0.00%
system.ruby.L2Cache_Controller.MT_IIB.L1_GETX            2      0.00%      0.00%
system.ruby.L2Cache_Controller.MT_IIB.WB_Data        15928      0.00%      0.00%
system.ruby.L2Cache_Controller.MT_IIB.WB_Data_clean        11674      0.00%      0.00%
system.ruby.L2Cache_Controller.MT_IIB.Unblock           22      0.00%      0.00%
system.ruby.L2Cache_Controller.MT_IB.WB_Data            9      0.00%      0.00%
system.ruby.L2Cache_Controller.MT_IB.WB_Data_clean           13      0.00%      0.00%
system.ruby.L2Cache_Controller.MT_SB.Unblock        27602      0.00%      0.00%

---------- End Simulation Statistics   ----------
