
---------- Begin Simulation Statistics ----------
sim_seconds                                  1.202957                       # Number of seconds simulated
sim_ticks                                1202956935000                       # Number of ticks simulated
final_tick                               53394127057001                       # Number of ticks from beginning of simulation (restored from checkpoints and never reset)
sim_freq                                 1000000000000                       # Frequency of simulated ticks
host_inst_rate                                 119570                       # Simulator instruction rate (inst/s)
host_op_rate                                   159995                       # Simulator op (including micro ops) rate (op/s)
host_tick_rate                              265580987                       # Simulator tick rate (ticks/s)
host_mem_usage                                2320076                       # Number of bytes of host memory used
host_seconds                                  4529.53                       # Real time elapsed on the host
sim_insts                                   541597955                       # Number of instructions simulated
sim_ops                                     724701400                       # Number of ops (including micro ops) simulated
system.voltage_domain.voltage                       1                       # Voltage in Volts
system.clk_domain.clock                          1000                       # Clock period in ticks
system.mem_ctrls0.bytes_read::ruby.dir_cntrl0     50791808                       # Number of bytes read from this memory
system.mem_ctrls0.bytes_read::total          50791808                       # Number of bytes read from this memory
system.mem_ctrls0.bytes_written::ruby.dir_cntrl0     24939392                       # Number of bytes written to this memory
system.mem_ctrls0.bytes_written::total       24939392                       # Number of bytes written to this memory
system.mem_ctrls0.num_reads::ruby.dir_cntrl0       793622                       # Number of read requests responded to by this memory
system.mem_ctrls0.num_reads::total             793622                       # Number of read requests responded to by this memory
system.mem_ctrls0.num_writes::ruby.dir_cntrl0       389678                       # Number of write requests responded to by this memory
system.mem_ctrls0.num_writes::total            389678                       # Number of write requests responded to by this memory
system.mem_ctrls0.bw_read::ruby.dir_cntrl0     42222466                       # Total read bandwidth from this memory (bytes/s)
system.mem_ctrls0.bw_read::total             42222466                       # Total read bandwidth from this memory (bytes/s)
system.mem_ctrls0.bw_write::ruby.dir_cntrl0     20731741                       # Write bandwidth from this memory (bytes/s)
system.mem_ctrls0.bw_write::total            20731741                       # Write bandwidth from this memory (bytes/s)
system.mem_ctrls0.bw_total::ruby.dir_cntrl0     62954207                       # Total bandwidth to/from this memory (bytes/s)
system.mem_ctrls0.bw_total::total            62954207                       # Total bandwidth to/from this memory (bytes/s)
system.mem_ctrls0.readReqs                     793622                       # Number of read requests accepted
system.mem_ctrls0.writeReqs                    389678                       # Number of write requests accepted
system.mem_ctrls0.readBursts                   793622                       # Number of DRAM read bursts, including those serviced by the write queue
system.mem_ctrls0.writeBursts                  389678                       # Number of DRAM write bursts, including those merged in the write queue
system.mem_ctrls0.bytesReadDRAM              50786432                       # Total number of bytes read from DRAM
system.mem_ctrls0.bytesReadWrQ                   5376                       # Total number of bytes read from write queue
system.mem_ctrls0.bytesWritten               24939840                       # Total number of bytes written to DRAM
system.mem_ctrls0.bytesReadSys               50791808                       # Total read bytes from the system interface side
system.mem_ctrls0.bytesWrittenSys            24939392                       # Total written bytes from the system interface side
system.mem_ctrls0.servicedByWrQ                    84                       # Number of DRAM read bursts serviced by the write queue
system.mem_ctrls0.mergedWrBursts                    0                       # Number of DRAM write bursts merged with an existing one
system.mem_ctrls0.neitherReadNorWriteReqs            0                       # Number of requests that are neither read nor write
system.mem_ctrls0.perBankRdBursts::0            49428                       # Per bank write bursts
system.mem_ctrls0.perBankRdBursts::1            50127                       # Per bank write bursts
system.mem_ctrls0.perBankRdBursts::2            49839                       # Per bank write bursts
system.mem_ctrls0.perBankRdBursts::3            49478                       # Per bank write bursts
system.mem_ctrls0.perBankRdBursts::4            48581                       # Per bank write bursts
system.mem_ctrls0.perBankRdBursts::5            48875                       # Per bank write bursts
system.mem_ctrls0.perBankRdBursts::6            48693                       # Per bank write bursts
system.mem_ctrls0.perBankRdBursts::7            49492                       # Per bank write bursts
system.mem_ctrls0.perBankRdBursts::8            49937                       # Per bank write bursts
system.mem_ctrls0.perBankRdBursts::9            49879                       # Per bank write bursts
system.mem_ctrls0.perBankRdBursts::10           50268                       # Per bank write bursts
system.mem_ctrls0.perBankRdBursts::11           50375                       # Per bank write bursts
system.mem_ctrls0.perBankRdBursts::12           49804                       # Per bank write bursts
system.mem_ctrls0.perBankRdBursts::13           49494                       # Per bank write bursts
system.mem_ctrls0.perBankRdBursts::14           49195                       # Per bank write bursts
system.mem_ctrls0.perBankRdBursts::15           50073                       # Per bank write bursts
system.mem_ctrls0.perBankWrBursts::0            24434                       # Per bank write bursts
system.mem_ctrls0.perBankWrBursts::1            24976                       # Per bank write bursts
system.mem_ctrls0.perBankWrBursts::2            24747                       # Per bank write bursts
system.mem_ctrls0.perBankWrBursts::3            24470                       # Per bank write bursts
system.mem_ctrls0.perBankWrBursts::4            23634                       # Per bank write bursts
system.mem_ctrls0.perBankWrBursts::5            23769                       # Per bank write bursts
system.mem_ctrls0.perBankWrBursts::6            23783                       # Per bank write bursts
system.mem_ctrls0.perBankWrBursts::7            24318                       # Per bank write bursts
system.mem_ctrls0.perBankWrBursts::8            24559                       # Per bank write bursts
system.mem_ctrls0.perBankWrBursts::9            24481                       # Per bank write bursts
system.mem_ctrls0.perBankWrBursts::10           24634                       # Per bank write bursts
system.mem_ctrls0.perBankWrBursts::11           24717                       # Per bank write bursts
system.mem_ctrls0.perBankWrBursts::12           24349                       # Per bank write bursts
system.mem_ctrls0.perBankWrBursts::13           24245                       # Per bank write bursts
system.mem_ctrls0.perBankWrBursts::14           24072                       # Per bank write bursts
system.mem_ctrls0.perBankWrBursts::15           24497                       # Per bank write bursts
system.mem_ctrls0.numRdRetry                        0                       # Number of times read queue was full causing retry
system.mem_ctrls0.numWrRetry                        0                       # Number of times write queue was full causing retry
system.mem_ctrls0.totGap                 1202963525000                       # Total gap between requests
system.mem_ctrls0.readPktSize::0                    0                       # Read request sizes (log2)
system.mem_ctrls0.readPktSize::1                    0                       # Read request sizes (log2)
system.mem_ctrls0.readPktSize::2                    0                       # Read request sizes (log2)
system.mem_ctrls0.readPktSize::3                    0                       # Read request sizes (log2)
system.mem_ctrls0.readPktSize::4                    0                       # Read request sizes (log2)
system.mem_ctrls0.readPktSize::5                    0                       # Read request sizes (log2)
system.mem_ctrls0.readPktSize::6               793622                       # Read request sizes (log2)
system.mem_ctrls0.writePktSize::0                   0                       # Write request sizes (log2)
system.mem_ctrls0.writePktSize::1                   0                       # Write request sizes (log2)
system.mem_ctrls0.writePktSize::2                   0                       # Write request sizes (log2)
system.mem_ctrls0.writePktSize::3                   0                       # Write request sizes (log2)
system.mem_ctrls0.writePktSize::4                   0                       # Write request sizes (log2)
system.mem_ctrls0.writePktSize::5                   0                       # Write request sizes (log2)
system.mem_ctrls0.writePktSize::6              389678                       # Write request sizes (log2)
system.mem_ctrls0.rdQLenPdf::0                 793406                       # What read queue length does an incoming req see
system.mem_ctrls0.rdQLenPdf::1                    132                       # What read queue length does an incoming req see
system.mem_ctrls0.rdQLenPdf::2                      0                       # What read queue length does an incoming req see
system.mem_ctrls0.rdQLenPdf::3                      0                       # What read queue length does an incoming req see
system.mem_ctrls0.rdQLenPdf::4                      0                       # What read queue length does an incoming req see
system.mem_ctrls0.rdQLenPdf::5                      0                       # What read queue length does an incoming req see
system.mem_ctrls0.rdQLenPdf::6                      0                       # What read queue length does an incoming req see
system.mem_ctrls0.rdQLenPdf::7                      0                       # What read queue length does an incoming req see
system.mem_ctrls0.rdQLenPdf::8                      0                       # What read queue length does an incoming req see
system.mem_ctrls0.rdQLenPdf::9                      0                       # What read queue length does an incoming req see
system.mem_ctrls0.rdQLenPdf::10                     0                       # What read queue length does an incoming req see
system.mem_ctrls0.rdQLenPdf::11                     0                       # What read queue length does an incoming req see
system.mem_ctrls0.rdQLenPdf::12                     0                       # What read queue length does an incoming req see
system.mem_ctrls0.rdQLenPdf::13                     0                       # What read queue length does an incoming req see
system.mem_ctrls0.rdQLenPdf::14                     0                       # What read queue length does an incoming req see
system.mem_ctrls0.rdQLenPdf::15                     0                       # What read queue length does an incoming req see
system.mem_ctrls0.rdQLenPdf::16                     0                       # What read queue length does an incoming req see
system.mem_ctrls0.rdQLenPdf::17                     0                       # What read queue length does an incoming req see
system.mem_ctrls0.rdQLenPdf::18                     0                       # What read queue length does an incoming req see
system.mem_ctrls0.rdQLenPdf::19                     0                       # What read queue length does an incoming req see
system.mem_ctrls0.rdQLenPdf::20                     0                       # What read queue length does an incoming req see
system.mem_ctrls0.rdQLenPdf::21                     0                       # What read queue length does an incoming req see
system.mem_ctrls0.rdQLenPdf::22                     0                       # What read queue length does an incoming req see
system.mem_ctrls0.rdQLenPdf::23                     0                       # What read queue length does an incoming req see
system.mem_ctrls0.rdQLenPdf::24                     0                       # What read queue length does an incoming req see
system.mem_ctrls0.rdQLenPdf::25                     0                       # What read queue length does an incoming req see
system.mem_ctrls0.rdQLenPdf::26                     0                       # What read queue length does an incoming req see
system.mem_ctrls0.rdQLenPdf::27                     0                       # What read queue length does an incoming req see
system.mem_ctrls0.rdQLenPdf::28                     0                       # What read queue length does an incoming req see
system.mem_ctrls0.rdQLenPdf::29                     0                       # What read queue length does an incoming req see
system.mem_ctrls0.rdQLenPdf::30                     0                       # What read queue length does an incoming req see
system.mem_ctrls0.rdQLenPdf::31                     0                       # What read queue length does an incoming req see
system.mem_ctrls0.wrQLenPdf::0                      0                       # What write queue length does an incoming req see
system.mem_ctrls0.wrQLenPdf::1                      0                       # What write queue length does an incoming req see
system.mem_ctrls0.wrQLenPdf::2                      0                       # What write queue length does an incoming req see
system.mem_ctrls0.wrQLenPdf::3                      0                       # What write queue length does an incoming req see
system.mem_ctrls0.wrQLenPdf::4                      0                       # What write queue length does an incoming req see
system.mem_ctrls0.wrQLenPdf::5                      0                       # What write queue length does an incoming req see
system.mem_ctrls0.wrQLenPdf::6                      0                       # What write queue length does an incoming req see
system.mem_ctrls0.wrQLenPdf::7                      0                       # What write queue length does an incoming req see
system.mem_ctrls0.wrQLenPdf::8                      0                       # What write queue length does an incoming req see
system.mem_ctrls0.wrQLenPdf::9                      0                       # What write queue length does an incoming req see
system.mem_ctrls0.wrQLenPdf::10                     0                       # What write queue length does an incoming req see
system.mem_ctrls0.wrQLenPdf::11                     0                       # What write queue length does an incoming req see
system.mem_ctrls0.wrQLenPdf::12                     0                       # What write queue length does an incoming req see
system.mem_ctrls0.wrQLenPdf::13                     0                       # What write queue length does an incoming req see
system.mem_ctrls0.wrQLenPdf::14                     0                       # What write queue length does an incoming req see
system.mem_ctrls0.wrQLenPdf::15                 14392                       # What write queue length does an incoming req see
system.mem_ctrls0.wrQLenPdf::16                 15067                       # What write queue length does an incoming req see
system.mem_ctrls0.wrQLenPdf::17                 21962                       # What write queue length does an incoming req see
system.mem_ctrls0.wrQLenPdf::18                 22650                       # What write queue length does an incoming req see
system.mem_ctrls0.wrQLenPdf::19                 22579                       # What write queue length does an incoming req see
system.mem_ctrls0.wrQLenPdf::20                 22565                       # What write queue length does an incoming req see
system.mem_ctrls0.wrQLenPdf::21                 22548                       # What write queue length does an incoming req see
system.mem_ctrls0.wrQLenPdf::22                 22577                       # What write queue length does an incoming req see
system.mem_ctrls0.wrQLenPdf::23                 22567                       # What write queue length does an incoming req see
system.mem_ctrls0.wrQLenPdf::24                 22585                       # What write queue length does an incoming req see
system.mem_ctrls0.wrQLenPdf::25                 22623                       # What write queue length does an incoming req see
system.mem_ctrls0.wrQLenPdf::26                 22610                       # What write queue length does an incoming req see
system.mem_ctrls0.wrQLenPdf::27                 22499                       # What write queue length does an incoming req see
system.mem_ctrls0.wrQLenPdf::28                 22525                       # What write queue length does an incoming req see
system.mem_ctrls0.wrQLenPdf::29                 22494                       # What write queue length does an incoming req see
system.mem_ctrls0.wrQLenPdf::30                 22492                       # What write queue length does an incoming req see
system.mem_ctrls0.wrQLenPdf::31                 22455                       # What write queue length does an incoming req see
system.mem_ctrls0.wrQLenPdf::32                 22454                       # What write queue length does an incoming req see
system.mem_ctrls0.wrQLenPdf::33                    31                       # What write queue length does an incoming req see
system.mem_ctrls0.wrQLenPdf::34                     3                       # What write queue length does an incoming req see
system.mem_ctrls0.wrQLenPdf::35                     0                       # What write queue length does an incoming req see
system.mem_ctrls0.wrQLenPdf::36                     0                       # What write queue length does an incoming req see
system.mem_ctrls0.wrQLenPdf::37                     0                       # What write queue length does an incoming req see
system.mem_ctrls0.wrQLenPdf::38                     0                       # What write queue length does an incoming req see
system.mem_ctrls0.wrQLenPdf::39                     0                       # What write queue length does an incoming req see
system.mem_ctrls0.wrQLenPdf::40                     0                       # What write queue length does an incoming req see
system.mem_ctrls0.wrQLenPdf::41                     0                       # What write queue length does an incoming req see
system.mem_ctrls0.wrQLenPdf::42                     0                       # What write queue length does an incoming req see
system.mem_ctrls0.wrQLenPdf::43                     0                       # What write queue length does an incoming req see
system.mem_ctrls0.wrQLenPdf::44                     0                       # What write queue length does an incoming req see
system.mem_ctrls0.wrQLenPdf::45                     0                       # What write queue length does an incoming req see
system.mem_ctrls0.wrQLenPdf::46                     0                       # What write queue length does an incoming req see
system.mem_ctrls0.wrQLenPdf::47                     0                       # What write queue length does an incoming req see
system.mem_ctrls0.wrQLenPdf::48                     0                       # What write queue length does an incoming req see
system.mem_ctrls0.wrQLenPdf::49                     0                       # What write queue length does an incoming req see
system.mem_ctrls0.wrQLenPdf::50                     0                       # What write queue length does an incoming req see
system.mem_ctrls0.wrQLenPdf::51                     0                       # What write queue length does an incoming req see
system.mem_ctrls0.wrQLenPdf::52                     0                       # What write queue length does an incoming req see
system.mem_ctrls0.wrQLenPdf::53                     0                       # What write queue length does an incoming req see
system.mem_ctrls0.wrQLenPdf::54                     0                       # What write queue length does an incoming req see
system.mem_ctrls0.wrQLenPdf::55                     0                       # What write queue length does an incoming req see
system.mem_ctrls0.wrQLenPdf::56                     0                       # What write queue length does an incoming req see
system.mem_ctrls0.wrQLenPdf::57                     0                       # What write queue length does an incoming req see
system.mem_ctrls0.wrQLenPdf::58                     0                       # What write queue length does an incoming req see
system.mem_ctrls0.wrQLenPdf::59                     0                       # What write queue length does an incoming req see
system.mem_ctrls0.wrQLenPdf::60                     0                       # What write queue length does an incoming req see
system.mem_ctrls0.wrQLenPdf::61                     0                       # What write queue length does an incoming req see
system.mem_ctrls0.wrQLenPdf::62                     0                       # What write queue length does an incoming req see
system.mem_ctrls0.wrQLenPdf::63                     0                       # What write queue length does an incoming req see
system.mem_ctrls0.bytesPerActivate::samples       496128                       # Bytes accessed per row activation
system.mem_ctrls0.bytesPerActivate::mean   152.634288                       # Bytes accessed per row activation
system.mem_ctrls0.bytesPerActivate::gmean   103.776688                       # Bytes accessed per row activation
system.mem_ctrls0.bytesPerActivate::stdev   189.175371                       # Bytes accessed per row activation
system.mem_ctrls0.bytesPerActivate::0-127       310645     62.61%     62.61% # Bytes accessed per row activation
system.mem_ctrls0.bytesPerActivate::128-255       105867     21.34%     83.95% # Bytes accessed per row activation
system.mem_ctrls0.bytesPerActivate::256-383        27406      5.52%     89.48% # Bytes accessed per row activation
system.mem_ctrls0.bytesPerActivate::384-511        14930      3.01%     92.49% # Bytes accessed per row activation
system.mem_ctrls0.bytesPerActivate::512-639        14314      2.89%     95.37% # Bytes accessed per row activation
system.mem_ctrls0.bytesPerActivate::640-767         8384      1.69%     97.06% # Bytes accessed per row activation
system.mem_ctrls0.bytesPerActivate::768-895         3064      0.62%     97.68% # Bytes accessed per row activation
system.mem_ctrls0.bytesPerActivate::896-1023         2628      0.53%     98.21% # Bytes accessed per row activation
system.mem_ctrls0.bytesPerActivate::1024-1151         8890      1.79%    100.00% # Bytes accessed per row activation
system.mem_ctrls0.bytesPerActivate::total       496128                       # Bytes accessed per row activation
system.mem_ctrls0.rdPerTurnAround::samples        22454                       # Reads before turning the bus around for writes
system.mem_ctrls0.rdPerTurnAround::mean     35.343547                       # Reads before turning the bus around for writes
system.mem_ctrls0.rdPerTurnAround::stdev    22.393047                       # Reads before turning the bus around for writes
system.mem_ctrls0.rdPerTurnAround::0-15          2508     11.17%     11.17% # Reads before turning the bus around for writes
system.mem_ctrls0.rdPerTurnAround::16-31         8392     37.37%     48.54% # Reads before turning the bus around for writes
system.mem_ctrls0.rdPerTurnAround::32-47         7349     32.73%     81.27% # Reads before turning the bus around for writes
system.mem_ctrls0.rdPerTurnAround::48-63         2298     10.23%     91.51% # Reads before turning the bus around for writes
system.mem_ctrls0.rdPerTurnAround::64-79          946      4.21%     95.72% # Reads before turning the bus around for writes
system.mem_ctrls0.rdPerTurnAround::80-95          441      1.96%     97.68% # Reads before turning the bus around for writes
system.mem_ctrls0.rdPerTurnAround::96-111          226      1.01%     98.69% # Reads before turning the bus around for writes
system.mem_ctrls0.rdPerTurnAround::112-127          120      0.53%     99.23% # Reads before turning the bus around for writes
system.mem_ctrls0.rdPerTurnAround::128-143           64      0.29%     99.51% # Reads before turning the bus around for writes
system.mem_ctrls0.rdPerTurnAround::144-159           48      0.21%     99.72% # Reads before turning the bus around for writes
system.mem_ctrls0.rdPerTurnAround::160-175           21      0.09%     99.82% # Reads before turning the bus around for writes
system.mem_ctrls0.rdPerTurnAround::176-191           17      0.08%     99.89% # Reads before turning the bus around for writes
system.mem_ctrls0.rdPerTurnAround::192-207           13      0.06%     99.95% # Reads before turning the bus around for writes
system.mem_ctrls0.rdPerTurnAround::208-223            3      0.01%     99.96% # Reads before turning the bus around for writes
system.mem_ctrls0.rdPerTurnAround::224-239            5      0.02%     99.99% # Reads before turning the bus around for writes
system.mem_ctrls0.rdPerTurnAround::240-255            1      0.00%     99.99% # Reads before turning the bus around for writes
system.mem_ctrls0.rdPerTurnAround::320-335            1      0.00%    100.00% # Reads before turning the bus around for writes
system.mem_ctrls0.rdPerTurnAround::432-447            1      0.00%    100.00% # Reads before turning the bus around for writes
system.mem_ctrls0.rdPerTurnAround::total        22454                       # Reads before turning the bus around for writes
system.mem_ctrls0.wrPerTurnAround::samples        22454                       # Writes before turning the bus around for reads
system.mem_ctrls0.wrPerTurnAround::mean     17.354814                       # Writes before turning the bus around for reads
system.mem_ctrls0.wrPerTurnAround::gmean    17.325657                       # Writes before turning the bus around for reads
system.mem_ctrls0.wrPerTurnAround::stdev     0.996770                       # Writes before turning the bus around for reads
system.mem_ctrls0.wrPerTurnAround::16            7471     33.27%     33.27% # Writes before turning the bus around for reads
system.mem_ctrls0.wrPerTurnAround::17             588      2.62%     35.89% # Writes before turning the bus around for reads
system.mem_ctrls0.wrPerTurnAround::18           13418     59.76%     95.65% # Writes before turning the bus around for reads
system.mem_ctrls0.wrPerTurnAround::19             915      4.07%     99.72% # Writes before turning the bus around for reads
system.mem_ctrls0.wrPerTurnAround::20              58      0.26%     99.98% # Writes before turning the bus around for reads
system.mem_ctrls0.wrPerTurnAround::21               4      0.02%    100.00% # Writes before turning the bus around for reads
system.mem_ctrls0.wrPerTurnAround::total        22454                       # Writes before turning the bus around for reads
system.mem_ctrls0.totQLat                  9894472250                       # Total ticks spent queuing
system.mem_ctrls0.totMemAccLat            24773309750                       # Total ticks spent from burst creation until serviced by the DRAM
system.mem_ctrls0.totBusLat                3967690000                       # Total ticks spent in databus transfers
system.mem_ctrls0.avgQLat                    12468.81                       # Average queueing delay per DRAM burst
system.mem_ctrls0.avgBusLat                   5000.00                       # Average bus latency per DRAM burst
system.mem_ctrls0.avgMemAccLat               31218.81                       # Average memory access latency per DRAM burst
system.mem_ctrls0.avgRdBW                       42.22                       # Average DRAM read bandwidth in MiByte/s
system.mem_ctrls0.avgWrBW                       20.73                       # Average achieved write bandwidth in MiByte/s
system.mem_ctrls0.avgRdBWSys                    42.22                       # Average system read bandwidth in MiByte/s
system.mem_ctrls0.avgWrBWSys                    20.73                       # Average system write bandwidth in MiByte/s
system.mem_ctrls0.peakBW                     12800.00                       # Theoretical peak bandwidth in MiByte/s
system.mem_ctrls0.busUtil                        0.49                       # Data bus utilization in percentage
system.mem_ctrls0.busUtilRead                    0.33                       # Data bus utilization in percentage for reads
system.mem_ctrls0.busUtilWrite                   0.16                       # Data bus utilization in percentage for writes
system.mem_ctrls0.avgRdQLen                      1.00                       # Average read queue length when enqueuing
system.mem_ctrls0.avgWrQLen                     24.92                       # Average write queue length when enqueuing
system.mem_ctrls0.readRowHits                  477003                       # Number of row buffer hits during reads
system.mem_ctrls0.writeRowHits                 210091                       # Number of row buffer hits during writes
system.mem_ctrls0.readRowHitRate                60.11                       # Row buffer hit rate for reads
system.mem_ctrls0.writeRowHitRate               53.91                       # Row buffer hit rate for writes
system.mem_ctrls0.avgGap                   1016617.53                       # Average gap between requests
system.mem_ctrls0.pageHitRate                   58.07                       # Row buffer hit rate, read and write combined
system.mem_ctrls0_0.actEnergy              1870601040                       # Energy for activate commands per rank (pJ)
system.mem_ctrls0_0.preEnergy              1020665250                       # Energy for precharge commands per rank (pJ)
system.mem_ctrls0_0.readEnergy             3112363800                       # Energy for read commands per rank (pJ)
system.mem_ctrls0_0.writeEnergy            1258266960                       # Energy for write commands per rank (pJ)
system.mem_ctrls0_0.refreshEnergy         79042938000                       # Energy for refresh commands per rank (pJ)
system.mem_ctrls0_0.actBackEnergy        216185606865                       # Energy for active background per rank (pJ)
system.mem_ctrls0_0.preBackEnergy        536470402500                       # Energy for precharge background per rank (pJ)
system.mem_ctrls0_0.totalEnergy          838960844415                       # Total energy per rank (pJ)
system.mem_ctrls0_0.averagePower           693.253992                       # Core power per rank (mW)
system.mem_ctrls0_0.memoryStateTime::IDLE 887047449250                       # Time in different power states
system.mem_ctrls0_0.memoryStateTime::REF  40169220000                       # Time in different power states
system.mem_ctrls0_0.memoryStateTime::PRE_PDN            0                       # Time in different power states
system.mem_ctrls0_0.memoryStateTime::ACT 275740380250                       # Time in different power states
system.mem_ctrls0_0.memoryStateTime::ACT_PDN            0                       # Time in different power states
system.mem_ctrls0_1.actEnergy              1898263080                       # Energy for activate commands per rank (pJ)
system.mem_ctrls0_1.preEnergy              1035758625                       # Energy for precharge commands per rank (pJ)
system.mem_ctrls0_1.readEnergy             3144913200                       # Energy for read commands per rank (pJ)
system.mem_ctrls0_1.writeEnergy            1267449120                       # Energy for write commands per rank (pJ)
system.mem_ctrls0_1.refreshEnergy         79042938000                       # Energy for refresh commands per rank (pJ)
system.mem_ctrls0_1.actBackEnergy        217391977665                       # Energy for active background per rank (pJ)
system.mem_ctrls0_1.preBackEnergy        535412182500                       # Energy for precharge background per rank (pJ)
system.mem_ctrls0_1.totalEnergy          839193482190                       # Total energy per rank (pJ)
system.mem_ctrls0_1.averagePower           693.446226                       # Core power per rank (mW)
system.mem_ctrls0_1.memoryStateTime::IDLE 885636003250                       # Time in different power states
system.mem_ctrls0_1.memoryStateTime::REF  40169220000                       # Time in different power states
system.mem_ctrls0_1.memoryStateTime::PRE_PDN            0                       # Time in different power states
system.mem_ctrls0_1.memoryStateTime::ACT 277147043000                       # Time in different power states
system.mem_ctrls0_1.memoryStateTime::ACT_PDN            0                       # Time in different power states
system.mem_ctrls1.bytes_read::ruby.dir_cntrl1     50732928                       # Number of bytes read from this memory
system.mem_ctrls1.bytes_read::total          50732928                       # Number of bytes read from this memory
system.mem_ctrls1.bytes_written::ruby.dir_cntrl1     24931392                       # Number of bytes written to this memory
system.mem_ctrls1.bytes_written::total       24931392                       # Number of bytes written to this memory
system.mem_ctrls1.num_reads::ruby.dir_cntrl1       792702                       # Number of read requests responded to by this memory
system.mem_ctrls1.num_reads::total             792702                       # Number of read requests responded to by this memory
system.mem_ctrls1.num_writes::ruby.dir_cntrl1       389553                       # Number of write requests responded to by this memory
system.mem_ctrls1.num_writes::total            389553                       # Number of write requests responded to by this memory
system.mem_ctrls1.bw_read::ruby.dir_cntrl1     42173520                       # Total read bandwidth from this memory (bytes/s)
system.mem_ctrls1.bw_read::total             42173520                       # Total read bandwidth from this memory (bytes/s)
system.mem_ctrls1.bw_write::ruby.dir_cntrl1     20725091                       # Write bandwidth from this memory (bytes/s)
system.mem_ctrls1.bw_write::total            20725091                       # Write bandwidth from this memory (bytes/s)
system.mem_ctrls1.bw_total::ruby.dir_cntrl1     62898611                       # Total bandwidth to/from this memory (bytes/s)
system.mem_ctrls1.bw_total::total            62898611                       # Total bandwidth to/from this memory (bytes/s)
system.mem_ctrls1.readReqs                     792702                       # Number of read requests accepted
system.mem_ctrls1.writeReqs                    389553                       # Number of write requests accepted
system.mem_ctrls1.readBursts                   792702                       # Number of DRAM read bursts, including those serviced by the write queue
system.mem_ctrls1.writeBursts                  389553                       # Number of DRAM write bursts, including those merged in the write queue
system.mem_ctrls1.bytesReadDRAM              50728064                       # Total number of bytes read from DRAM
system.mem_ctrls1.bytesReadWrQ                   4864                       # Total number of bytes read from write queue
system.mem_ctrls1.bytesWritten               24931520                       # Total number of bytes written to DRAM
system.mem_ctrls1.bytesReadSys               50732928                       # Total read bytes from the system interface side
system.mem_ctrls1.bytesWrittenSys            24931392                       # Total written bytes from the system interface side
system.mem_ctrls1.servicedByWrQ                    76                       # Number of DRAM read bursts serviced by the write queue
system.mem_ctrls1.mergedWrBursts                    0                       # Number of DRAM write bursts merged with an existing one
system.mem_ctrls1.neitherReadNorWriteReqs            0                       # Number of requests that are neither read nor write
system.mem_ctrls1.perBankRdBursts::0            49385                       # Per bank write bursts
system.mem_ctrls1.perBankRdBursts::1            50061                       # Per bank write bursts
system.mem_ctrls1.perBankRdBursts::2            49626                       # Per bank write bursts
system.mem_ctrls1.perBankRdBursts::3            49438                       # Per bank write bursts
system.mem_ctrls1.perBankRdBursts::4            48573                       # Per bank write bursts
system.mem_ctrls1.perBankRdBursts::5            48760                       # Per bank write bursts
system.mem_ctrls1.perBankRdBursts::6            48718                       # Per bank write bursts
system.mem_ctrls1.perBankRdBursts::7            49529                       # Per bank write bursts
system.mem_ctrls1.perBankRdBursts::8            49882                       # Per bank write bursts
system.mem_ctrls1.perBankRdBursts::9            49838                       # Per bank write bursts
system.mem_ctrls1.perBankRdBursts::10           50257                       # Per bank write bursts
system.mem_ctrls1.perBankRdBursts::11           50281                       # Per bank write bursts
system.mem_ctrls1.perBankRdBursts::12           49749                       # Per bank write bursts
system.mem_ctrls1.perBankRdBursts::13           49395                       # Per bank write bursts
system.mem_ctrls1.perBankRdBursts::14           49144                       # Per bank write bursts
system.mem_ctrls1.perBankRdBursts::15           49990                       # Per bank write bursts
system.mem_ctrls1.perBankWrBursts::0            24440                       # Per bank write bursts
system.mem_ctrls1.perBankWrBursts::1            24896                       # Per bank write bursts
system.mem_ctrls1.perBankWrBursts::2            24649                       # Per bank write bursts
system.mem_ctrls1.perBankWrBursts::3            24452                       # Per bank write bursts
system.mem_ctrls1.perBankWrBursts::4            23650                       # Per bank write bursts
system.mem_ctrls1.perBankWrBursts::5            23707                       # Per bank write bursts
system.mem_ctrls1.perBankWrBursts::6            23839                       # Per bank write bursts
system.mem_ctrls1.perBankWrBursts::7            24371                       # Per bank write bursts
system.mem_ctrls1.perBankWrBursts::8            24546                       # Per bank write bursts
system.mem_ctrls1.perBankWrBursts::9            24500                       # Per bank write bursts
system.mem_ctrls1.perBankWrBursts::10           24662                       # Per bank write bursts
system.mem_ctrls1.perBankWrBursts::11           24707                       # Per bank write bursts
system.mem_ctrls1.perBankWrBursts::12           24372                       # Per bank write bursts
system.mem_ctrls1.perBankWrBursts::13           24155                       # Per bank write bursts
system.mem_ctrls1.perBankWrBursts::14           24094                       # Per bank write bursts
system.mem_ctrls1.perBankWrBursts::15           24515                       # Per bank write bursts
system.mem_ctrls1.numRdRetry                        0                       # Number of times read queue was full causing retry
system.mem_ctrls1.numWrRetry                        0                       # Number of times write queue was full causing retry
system.mem_ctrls1.totGap                 1202954080500                       # Total gap between requests
system.mem_ctrls1.readPktSize::0                    0                       # Read request sizes (log2)
system.mem_ctrls1.readPktSize::1                    0                       # Read request sizes (log2)
system.mem_ctrls1.readPktSize::2                    0                       # Read request sizes (log2)
system.mem_ctrls1.readPktSize::3                    0                       # Read request sizes (log2)
system.mem_ctrls1.readPktSize::4                    0                       # Read request sizes (log2)
system.mem_ctrls1.readPktSize::5                    0                       # Read request sizes (log2)
system.mem_ctrls1.readPktSize::6               792702                       # Read request sizes (log2)
system.mem_ctrls1.writePktSize::0                   0                       # Write request sizes (log2)
system.mem_ctrls1.writePktSize::1                   0                       # Write request sizes (log2)
system.mem_ctrls1.writePktSize::2                   0                       # Write request sizes (log2)
system.mem_ctrls1.writePktSize::3                   0                       # Write request sizes (log2)
system.mem_ctrls1.writePktSize::4                   0                       # Write request sizes (log2)
system.mem_ctrls1.writePktSize::5                   0                       # Write request sizes (log2)
system.mem_ctrls1.writePktSize::6              389553                       # Write request sizes (log2)
system.mem_ctrls1.rdQLenPdf::0                 792571                       # What read queue length does an incoming req see
system.mem_ctrls1.rdQLenPdf::1                     55                       # What read queue length does an incoming req see
system.mem_ctrls1.rdQLenPdf::2                      0                       # What read queue length does an incoming req see
system.mem_ctrls1.rdQLenPdf::3                      0                       # What read queue length does an incoming req see
system.mem_ctrls1.rdQLenPdf::4                      0                       # What read queue length does an incoming req see
system.mem_ctrls1.rdQLenPdf::5                      0                       # What read queue length does an incoming req see
system.mem_ctrls1.rdQLenPdf::6                      0                       # What read queue length does an incoming req see
system.mem_ctrls1.rdQLenPdf::7                      0                       # What read queue length does an incoming req see
system.mem_ctrls1.rdQLenPdf::8                      0                       # What read queue length does an incoming req see
system.mem_ctrls1.rdQLenPdf::9                      0                       # What read queue length does an incoming req see
system.mem_ctrls1.rdQLenPdf::10                     0                       # What read queue length does an incoming req see
system.mem_ctrls1.rdQLenPdf::11                     0                       # What read queue length does an incoming req see
system.mem_ctrls1.rdQLenPdf::12                     0                       # What read queue length does an incoming req see
system.mem_ctrls1.rdQLenPdf::13                     0                       # What read queue length does an incoming req see
system.mem_ctrls1.rdQLenPdf::14                     0                       # What read queue length does an incoming req see
system.mem_ctrls1.rdQLenPdf::15                     0                       # What read queue length does an incoming req see
system.mem_ctrls1.rdQLenPdf::16                     0                       # What read queue length does an incoming req see
system.mem_ctrls1.rdQLenPdf::17                     0                       # What read queue length does an incoming req see
system.mem_ctrls1.rdQLenPdf::18                     0                       # What read queue length does an incoming req see
system.mem_ctrls1.rdQLenPdf::19                     0                       # What read queue length does an incoming req see
system.mem_ctrls1.rdQLenPdf::20                     0                       # What read queue length does an incoming req see
system.mem_ctrls1.rdQLenPdf::21                     0                       # What read queue length does an incoming req see
system.mem_ctrls1.rdQLenPdf::22                     0                       # What read queue length does an incoming req see
system.mem_ctrls1.rdQLenPdf::23                     0                       # What read queue length does an incoming req see
system.mem_ctrls1.rdQLenPdf::24                     0                       # What read queue length does an incoming req see
system.mem_ctrls1.rdQLenPdf::25                     0                       # What read queue length does an incoming req see
system.mem_ctrls1.rdQLenPdf::26                     0                       # What read queue length does an incoming req see
system.mem_ctrls1.rdQLenPdf::27                     0                       # What read queue length does an incoming req see
system.mem_ctrls1.rdQLenPdf::28                     0                       # What read queue length does an incoming req see
system.mem_ctrls1.rdQLenPdf::29                     0                       # What read queue length does an incoming req see
system.mem_ctrls1.rdQLenPdf::30                     0                       # What read queue length does an incoming req see
system.mem_ctrls1.rdQLenPdf::31                     0                       # What read queue length does an incoming req see
system.mem_ctrls1.wrQLenPdf::0                      0                       # What write queue length does an incoming req see
system.mem_ctrls1.wrQLenPdf::1                      0                       # What write queue length does an incoming req see
system.mem_ctrls1.wrQLenPdf::2                      0                       # What write queue length does an incoming req see
system.mem_ctrls1.wrQLenPdf::3                      0                       # What write queue length does an incoming req see
system.mem_ctrls1.wrQLenPdf::4                      0                       # What write queue length does an incoming req see
system.mem_ctrls1.wrQLenPdf::5                      0                       # What write queue length does an incoming req see
system.mem_ctrls1.wrQLenPdf::6                      0                       # What write queue length does an incoming req see
system.mem_ctrls1.wrQLenPdf::7                      0                       # What write queue length does an incoming req see
system.mem_ctrls1.wrQLenPdf::8                      0                       # What write queue length does an incoming req see
system.mem_ctrls1.wrQLenPdf::9                      0                       # What write queue length does an incoming req see
system.mem_ctrls1.wrQLenPdf::10                     0                       # What write queue length does an incoming req see
system.mem_ctrls1.wrQLenPdf::11                     0                       # What write queue length does an incoming req see
system.mem_ctrls1.wrQLenPdf::12                     0                       # What write queue length does an incoming req see
system.mem_ctrls1.wrQLenPdf::13                     0                       # What write queue length does an incoming req see
system.mem_ctrls1.wrQLenPdf::14                     0                       # What write queue length does an incoming req see
system.mem_ctrls1.wrQLenPdf::15                 14396                       # What write queue length does an incoming req see
system.mem_ctrls1.wrQLenPdf::16                 15066                       # What write queue length does an incoming req see
system.mem_ctrls1.wrQLenPdf::17                 21956                       # What write queue length does an incoming req see
system.mem_ctrls1.wrQLenPdf::18                 22613                       # What write queue length does an incoming req see
system.mem_ctrls1.wrQLenPdf::19                 22563                       # What write queue length does an incoming req see
system.mem_ctrls1.wrQLenPdf::20                 22543                       # What write queue length does an incoming req see
system.mem_ctrls1.wrQLenPdf::21                 22552                       # What write queue length does an incoming req see
system.mem_ctrls1.wrQLenPdf::22                 22524                       # What write queue length does an incoming req see
system.mem_ctrls1.wrQLenPdf::23                 22541                       # What write queue length does an incoming req see
system.mem_ctrls1.wrQLenPdf::24                 22659                       # What write queue length does an incoming req see
system.mem_ctrls1.wrQLenPdf::25                 22627                       # What write queue length does an incoming req see
system.mem_ctrls1.wrQLenPdf::26                 22633                       # What write queue length does an incoming req see
system.mem_ctrls1.wrQLenPdf::27                 22478                       # What write queue length does an incoming req see
system.mem_ctrls1.wrQLenPdf::28                 22522                       # What write queue length does an incoming req see
system.mem_ctrls1.wrQLenPdf::29                 22509                       # What write queue length does an incoming req see
system.mem_ctrls1.wrQLenPdf::30                 22467                       # What write queue length does an incoming req see
system.mem_ctrls1.wrQLenPdf::31                 22443                       # What write queue length does an incoming req see
system.mem_ctrls1.wrQLenPdf::32                 22439                       # What write queue length does an incoming req see
system.mem_ctrls1.wrQLenPdf::33                    18                       # What write queue length does an incoming req see
system.mem_ctrls1.wrQLenPdf::34                     3                       # What write queue length does an incoming req see
system.mem_ctrls1.wrQLenPdf::35                     1                       # What write queue length does an incoming req see
system.mem_ctrls1.wrQLenPdf::36                     0                       # What write queue length does an incoming req see
system.mem_ctrls1.wrQLenPdf::37                     0                       # What write queue length does an incoming req see
system.mem_ctrls1.wrQLenPdf::38                     0                       # What write queue length does an incoming req see
system.mem_ctrls1.wrQLenPdf::39                     0                       # What write queue length does an incoming req see
system.mem_ctrls1.wrQLenPdf::40                     0                       # What write queue length does an incoming req see
system.mem_ctrls1.wrQLenPdf::41                     0                       # What write queue length does an incoming req see
system.mem_ctrls1.wrQLenPdf::42                     0                       # What write queue length does an incoming req see
system.mem_ctrls1.wrQLenPdf::43                     0                       # What write queue length does an incoming req see
system.mem_ctrls1.wrQLenPdf::44                     0                       # What write queue length does an incoming req see
system.mem_ctrls1.wrQLenPdf::45                     0                       # What write queue length does an incoming req see
system.mem_ctrls1.wrQLenPdf::46                     0                       # What write queue length does an incoming req see
system.mem_ctrls1.wrQLenPdf::47                     0                       # What write queue length does an incoming req see
system.mem_ctrls1.wrQLenPdf::48                     0                       # What write queue length does an incoming req see
system.mem_ctrls1.wrQLenPdf::49                     0                       # What write queue length does an incoming req see
system.mem_ctrls1.wrQLenPdf::50                     0                       # What write queue length does an incoming req see
system.mem_ctrls1.wrQLenPdf::51                     0                       # What write queue length does an incoming req see
system.mem_ctrls1.wrQLenPdf::52                     0                       # What write queue length does an incoming req see
system.mem_ctrls1.wrQLenPdf::53                     0                       # What write queue length does an incoming req see
system.mem_ctrls1.wrQLenPdf::54                     0                       # What write queue length does an incoming req see
system.mem_ctrls1.wrQLenPdf::55                     0                       # What write queue length does an incoming req see
system.mem_ctrls1.wrQLenPdf::56                     0                       # What write queue length does an incoming req see
system.mem_ctrls1.wrQLenPdf::57                     0                       # What write queue length does an incoming req see
system.mem_ctrls1.wrQLenPdf::58                     0                       # What write queue length does an incoming req see
system.mem_ctrls1.wrQLenPdf::59                     0                       # What write queue length does an incoming req see
system.mem_ctrls1.wrQLenPdf::60                     0                       # What write queue length does an incoming req see
system.mem_ctrls1.wrQLenPdf::61                     0                       # What write queue length does an incoming req see
system.mem_ctrls1.wrQLenPdf::62                     0                       # What write queue length does an incoming req see
system.mem_ctrls1.wrQLenPdf::63                     0                       # What write queue length does an incoming req see
system.mem_ctrls1.bytesPerActivate::samples       497515                       # Bytes accessed per row activation
system.mem_ctrls1.bytesPerActivate::mean   152.075238                       # Bytes accessed per row activation
system.mem_ctrls1.bytesPerActivate::gmean   103.181037                       # Bytes accessed per row activation
system.mem_ctrls1.bytesPerActivate::stdev   189.732211                       # Bytes accessed per row activation
system.mem_ctrls1.bytesPerActivate::0-127       314298     63.17%     63.17% # Bytes accessed per row activation
system.mem_ctrls1.bytesPerActivate::128-255       104177     20.94%     84.11% # Bytes accessed per row activation
system.mem_ctrls1.bytesPerActivate::256-383        26933      5.41%     89.53% # Bytes accessed per row activation
system.mem_ctrls1.bytesPerActivate::384-511        14341      2.88%     92.41% # Bytes accessed per row activation
system.mem_ctrls1.bytesPerActivate::512-639        14564      2.93%     95.34% # Bytes accessed per row activation
system.mem_ctrls1.bytesPerActivate::640-767         8386      1.69%     97.02% # Bytes accessed per row activation
system.mem_ctrls1.bytesPerActivate::768-895         3147      0.63%     97.65% # Bytes accessed per row activation
system.mem_ctrls1.bytesPerActivate::896-1023         2716      0.55%     98.20% # Bytes accessed per row activation
system.mem_ctrls1.bytesPerActivate::1024-1151         8953      1.80%    100.00% # Bytes accessed per row activation
system.mem_ctrls1.bytesPerActivate::total       497515                       # Bytes accessed per row activation
system.mem_ctrls1.rdPerTurnAround::samples        22439                       # Reads before turning the bus around for writes
system.mem_ctrls1.rdPerTurnAround::mean     35.325594                       # Reads before turning the bus around for writes
system.mem_ctrls1.rdPerTurnAround::stdev    22.303220                       # Reads before turning the bus around for writes
system.mem_ctrls1.rdPerTurnAround::0-15          2575     11.48%     11.48% # Reads before turning the bus around for writes
system.mem_ctrls1.rdPerTurnAround::16-31         8039     35.83%     47.30% # Reads before turning the bus around for writes
system.mem_ctrls1.rdPerTurnAround::32-47         7699     34.31%     81.61% # Reads before turning the bus around for writes
system.mem_ctrls1.rdPerTurnAround::48-63         2251     10.03%     91.64% # Reads before turning the bus around for writes
system.mem_ctrls1.rdPerTurnAround::64-79          888      3.96%     95.60% # Reads before turning the bus around for writes
system.mem_ctrls1.rdPerTurnAround::80-95          446      1.99%     97.59% # Reads before turning the bus around for writes
system.mem_ctrls1.rdPerTurnAround::96-111          261      1.16%     98.75% # Reads before turning the bus around for writes
system.mem_ctrls1.rdPerTurnAround::112-127          117      0.52%     99.27% # Reads before turning the bus around for writes
system.mem_ctrls1.rdPerTurnAround::128-143           68      0.30%     99.58% # Reads before turning the bus around for writes
system.mem_ctrls1.rdPerTurnAround::144-159           45      0.20%     99.78% # Reads before turning the bus around for writes
system.mem_ctrls1.rdPerTurnAround::160-175           16      0.07%     99.85% # Reads before turning the bus around for writes
system.mem_ctrls1.rdPerTurnAround::176-191           14      0.06%     99.91% # Reads before turning the bus around for writes
system.mem_ctrls1.rdPerTurnAround::192-207            9      0.04%     99.95% # Reads before turning the bus around for writes
system.mem_ctrls1.rdPerTurnAround::208-223            1      0.00%     99.96% # Reads before turning the bus around for writes
system.mem_ctrls1.rdPerTurnAround::240-255            2      0.01%     99.96% # Reads before turning the bus around for writes
system.mem_ctrls1.rdPerTurnAround::256-271            3      0.01%     99.98% # Reads before turning the bus around for writes
system.mem_ctrls1.rdPerTurnAround::320-335            4      0.02%    100.00% # Reads before turning the bus around for writes
system.mem_ctrls1.rdPerTurnAround::368-383            1      0.00%    100.00% # Reads before turning the bus around for writes
system.mem_ctrls1.rdPerTurnAround::total        22439                       # Reads before turning the bus around for writes
system.mem_ctrls1.wrPerTurnAround::samples        22439                       # Writes before turning the bus around for reads
system.mem_ctrls1.wrPerTurnAround::mean     17.360622                       # Writes before turning the bus around for reads
system.mem_ctrls1.wrPerTurnAround::gmean    17.331210                       # Writes before turning the bus around for reads
system.mem_ctrls1.wrPerTurnAround::stdev     1.001333                       # Writes before turning the bus around for reads
system.mem_ctrls1.wrPerTurnAround::16            7455     33.22%     33.22% # Writes before turning the bus around for reads
system.mem_ctrls1.wrPerTurnAround::17             586      2.61%     35.83% # Writes before turning the bus around for reads
system.mem_ctrls1.wrPerTurnAround::18           13304     59.29%     95.12% # Writes before turning the bus around for reads
system.mem_ctrls1.wrPerTurnAround::19            1042      4.64%     99.77% # Writes before turning the bus around for reads
system.mem_ctrls1.wrPerTurnAround::20              49      0.22%     99.99% # Writes before turning the bus around for reads
system.mem_ctrls1.wrPerTurnAround::21               3      0.01%    100.00% # Writes before turning the bus around for reads
system.mem_ctrls1.wrPerTurnAround::total        22439                       # Writes before turning the bus around for reads
system.mem_ctrls1.totQLat                  9833889000                       # Total ticks spent queuing
system.mem_ctrls1.totMemAccLat            24695626500                       # Total ticks spent from burst creation until serviced by the DRAM
system.mem_ctrls1.totBusLat                3963130000                       # Total ticks spent in databus transfers
system.mem_ctrls1.avgQLat                    12406.72                       # Average queueing delay per DRAM burst
system.mem_ctrls1.avgBusLat                   5000.00                       # Average bus latency per DRAM burst
system.mem_ctrls1.avgMemAccLat               31156.72                       # Average memory access latency per DRAM burst
system.mem_ctrls1.avgRdBW                       42.17                       # Average DRAM read bandwidth in MiByte/s
system.mem_ctrls1.avgWrBW                       20.73                       # Average achieved write bandwidth in MiByte/s
system.mem_ctrls1.avgRdBWSys                    42.17                       # Average system read bandwidth in MiByte/s
system.mem_ctrls1.avgWrBWSys                    20.73                       # Average system write bandwidth in MiByte/s
system.mem_ctrls1.peakBW                     12800.00                       # Theoretical peak bandwidth in MiByte/s
system.mem_ctrls1.busUtil                        0.49                       # Data bus utilization in percentage
system.mem_ctrls1.busUtilRead                    0.33                       # Data bus utilization in percentage for reads
system.mem_ctrls1.busUtilWrite                   0.16                       # Data bus utilization in percentage for writes
system.mem_ctrls1.avgRdQLen                      1.00                       # Average read queue length when enqueuing
system.mem_ctrls1.avgWrQLen                     24.94                       # Average write queue length when enqueuing
system.mem_ctrls1.readRowHits                  477093                       # Number of row buffer hits during reads
system.mem_ctrls1.writeRowHits                 207574                       # Number of row buffer hits during writes
system.mem_ctrls1.readRowHitRate                60.19                       # Row buffer hit rate for reads
system.mem_ctrls1.writeRowHitRate               53.29                       # Row buffer hit rate for writes
system.mem_ctrls1.avgGap                   1017508.14                       # Average gap between requests
system.mem_ctrls1.pageHitRate                   57.92                       # Row buffer hit rate, read and write combined
system.mem_ctrls1_0.actEnergy              1876422240                       # Energy for activate commands per rank (pJ)
system.mem_ctrls1_0.preEnergy              1023841500                       # Energy for precharge commands per rank (pJ)
system.mem_ctrls1_0.readEnergy             3108518400                       # Energy for read commands per rank (pJ)
system.mem_ctrls1_0.writeEnergy            1257359760                       # Energy for write commands per rank (pJ)
system.mem_ctrls1_0.refreshEnergy         79042938000                       # Energy for refresh commands per rank (pJ)
system.mem_ctrls1_0.actBackEnergy        216025784280                       # Energy for active background per rank (pJ)
system.mem_ctrls1_0.preBackEnergy        536610597750                       # Energy for precharge background per rank (pJ)
system.mem_ctrls1_0.totalEnergy          838945461930                       # Total energy per rank (pJ)
system.mem_ctrls1_0.averagePower           693.241281                       # Core power per rank (mW)
system.mem_ctrls1_0.memoryStateTime::IDLE 887268804250                       # Time in different power states
system.mem_ctrls1_0.memoryStateTime::REF  40169220000                       # Time in different power states
system.mem_ctrls1_0.memoryStateTime::PRE_PDN            0                       # Time in different power states
system.mem_ctrls1_0.memoryStateTime::ACT 275514255750                       # Time in different power states
system.mem_ctrls1_0.memoryStateTime::ACT_PDN            0                       # Time in different power states
system.mem_ctrls1_1.actEnergy              1903010760                       # Energy for activate commands per rank (pJ)
system.mem_ctrls1_1.preEnergy              1038349125                       # Energy for precharge commands per rank (pJ)
system.mem_ctrls1_1.readEnergy             3141317400                       # Energy for read commands per rank (pJ)
system.mem_ctrls1_1.writeEnergy            1267410240                       # Energy for write commands per rank (pJ)
system.mem_ctrls1_1.refreshEnergy         79042938000                       # Energy for refresh commands per rank (pJ)
system.mem_ctrls1_1.actBackEnergy        217451040210                       # Energy for active background per rank (pJ)
system.mem_ctrls1_1.preBackEnergy        535360373250                       # Energy for precharge background per rank (pJ)
system.mem_ctrls1_1.totalEnergy          839204438985                       # Total energy per rank (pJ)
system.mem_ctrls1_1.averagePower           693.455280                       # Core power per rank (mW)
system.mem_ctrls1_1.memoryStateTime::IDLE 885514730500                       # Time in different power states
system.mem_ctrls1_1.memoryStateTime::REF  40169220000                       # Time in different power states
system.mem_ctrls1_1.memoryStateTime::PRE_PDN            0                       # Time in different power states
system.mem_ctrls1_1.memoryStateTime::ACT 277268315750                       # Time in different power states
system.mem_ctrls1_1.memoryStateTime::ACT_PDN            0                       # Time in different power states
system.mem_ctrls2.bytes_read::ruby.dir_cntrl2     50755904                       # Number of bytes read from this memory
system.mem_ctrls2.bytes_read::total          50755904                       # Number of bytes read from this memory
system.mem_ctrls2.bytes_written::ruby.dir_cntrl2     24930752                       # Number of bytes written to this memory
system.mem_ctrls2.bytes_written::total       24930752                       # Number of bytes written to this memory
system.mem_ctrls2.num_reads::ruby.dir_cntrl2       793061                       # Number of read requests responded to by this memory
system.mem_ctrls2.num_reads::total             793061                       # Number of read requests responded to by this memory
system.mem_ctrls2.num_writes::ruby.dir_cntrl2       389543                       # Number of write requests responded to by this memory
system.mem_ctrls2.num_writes::total            389543                       # Number of write requests responded to by this memory
system.mem_ctrls2.bw_read::ruby.dir_cntrl2     42192619                       # Total read bandwidth from this memory (bytes/s)
system.mem_ctrls2.bw_read::total             42192619                       # Total read bandwidth from this memory (bytes/s)
system.mem_ctrls2.bw_write::ruby.dir_cntrl2     20724559                       # Write bandwidth from this memory (bytes/s)
system.mem_ctrls2.bw_write::total            20724559                       # Write bandwidth from this memory (bytes/s)
system.mem_ctrls2.bw_total::ruby.dir_cntrl2     62917178                       # Total bandwidth to/from this memory (bytes/s)
system.mem_ctrls2.bw_total::total            62917178                       # Total bandwidth to/from this memory (bytes/s)
system.mem_ctrls2.readReqs                     793061                       # Number of read requests accepted
system.mem_ctrls2.writeReqs                    389543                       # Number of write requests accepted
system.mem_ctrls2.readBursts                   793061                       # Number of DRAM read bursts, including those serviced by the write queue
system.mem_ctrls2.writeBursts                  389543                       # Number of DRAM write bursts, including those merged in the write queue
system.mem_ctrls2.bytesReadDRAM              50749888                       # Total number of bytes read from DRAM
system.mem_ctrls2.bytesReadWrQ                   6016                       # Total number of bytes read from write queue
system.mem_ctrls2.bytesWritten               24930048                       # Total number of bytes written to DRAM
system.mem_ctrls2.bytesReadSys               50755904                       # Total read bytes from the system interface side
system.mem_ctrls2.bytesWrittenSys            24930752                       # Total written bytes from the system interface side
system.mem_ctrls2.servicedByWrQ                    94                       # Number of DRAM read bursts serviced by the write queue
system.mem_ctrls2.mergedWrBursts                    0                       # Number of DRAM write bursts merged with an existing one
system.mem_ctrls2.neitherReadNorWriteReqs            0                       # Number of requests that are neither read nor write
system.mem_ctrls2.perBankRdBursts::0            49481                       # Per bank write bursts
system.mem_ctrls2.perBankRdBursts::1            50122                       # Per bank write bursts
system.mem_ctrls2.perBankRdBursts::2            49714                       # Per bank write bursts
system.mem_ctrls2.perBankRdBursts::3            49469                       # Per bank write bursts
system.mem_ctrls2.perBankRdBursts::4            48575                       # Per bank write bursts
system.mem_ctrls2.perBankRdBursts::5            48788                       # Per bank write bursts
system.mem_ctrls2.perBankRdBursts::6            48718                       # Per bank write bursts
system.mem_ctrls2.perBankRdBursts::7            49492                       # Per bank write bursts
system.mem_ctrls2.perBankRdBursts::8            49883                       # Per bank write bursts
system.mem_ctrls2.perBankRdBursts::9            49905                       # Per bank write bursts
system.mem_ctrls2.perBankRdBursts::10           50263                       # Per bank write bursts
system.mem_ctrls2.perBankRdBursts::11           50303                       # Per bank write bursts
system.mem_ctrls2.perBankRdBursts::12           49771                       # Per bank write bursts
system.mem_ctrls2.perBankRdBursts::13           49361                       # Per bank write bursts
system.mem_ctrls2.perBankRdBursts::14           49162                       # Per bank write bursts
system.mem_ctrls2.perBankRdBursts::15           49960                       # Per bank write bursts
system.mem_ctrls2.perBankWrBursts::0            24456                       # Per bank write bursts
system.mem_ctrls2.perBankWrBursts::1            24895                       # Per bank write bursts
system.mem_ctrls2.perBankWrBursts::2            24681                       # Per bank write bursts
system.mem_ctrls2.perBankWrBursts::3            24464                       # Per bank write bursts
system.mem_ctrls2.perBankWrBursts::4            23648                       # Per bank write bursts
system.mem_ctrls2.perBankWrBursts::5            23713                       # Per bank write bursts
system.mem_ctrls2.perBankWrBursts::6            23840                       # Per bank write bursts
system.mem_ctrls2.perBankWrBursts::7            24295                       # Per bank write bursts
system.mem_ctrls2.perBankWrBursts::8            24575                       # Per bank write bursts
system.mem_ctrls2.perBankWrBursts::9            24566                       # Per bank write bursts
system.mem_ctrls2.perBankWrBursts::10           24660                       # Per bank write bursts
system.mem_ctrls2.perBankWrBursts::11           24684                       # Per bank write bursts
system.mem_ctrls2.perBankWrBursts::12           24367                       # Per bank write bursts
system.mem_ctrls2.perBankWrBursts::13           24138                       # Per bank write bursts
system.mem_ctrls2.perBankWrBursts::14           24102                       # Per bank write bursts
system.mem_ctrls2.perBankWrBursts::15           24448                       # Per bank write bursts
system.mem_ctrls2.numRdRetry                        0                       # Number of times read queue was full causing retry
system.mem_ctrls2.numWrRetry                        0                       # Number of times write queue was full causing retry
system.mem_ctrls2.totGap                 1202954939000                       # Total gap between requests
system.mem_ctrls2.readPktSize::0                    0                       # Read request sizes (log2)
system.mem_ctrls2.readPktSize::1                    0                       # Read request sizes (log2)
system.mem_ctrls2.readPktSize::2                    0                       # Read request sizes (log2)
system.mem_ctrls2.readPktSize::3                    0                       # Read request sizes (log2)
system.mem_ctrls2.readPktSize::4                    0                       # Read request sizes (log2)
system.mem_ctrls2.readPktSize::5                    0                       # Read request sizes (log2)
system.mem_ctrls2.readPktSize::6               793061                       # Read request sizes (log2)
system.mem_ctrls2.writePktSize::0                   0                       # Write request sizes (log2)
system.mem_ctrls2.writePktSize::1                   0                       # Write request sizes (log2)
system.mem_ctrls2.writePktSize::2                   0                       # Write request sizes (log2)
system.mem_ctrls2.writePktSize::3                   0                       # Write request sizes (log2)
system.mem_ctrls2.writePktSize::4                   0                       # Write request sizes (log2)
system.mem_ctrls2.writePktSize::5                   0                       # Write request sizes (log2)
system.mem_ctrls2.writePktSize::6              389543                       # Write request sizes (log2)
system.mem_ctrls2.rdQLenPdf::0                 792874                       # What read queue length does an incoming req see
system.mem_ctrls2.rdQLenPdf::1                     93                       # What read queue length does an incoming req see
system.mem_ctrls2.rdQLenPdf::2                      0                       # What read queue length does an incoming req see
system.mem_ctrls2.rdQLenPdf::3                      0                       # What read queue length does an incoming req see
system.mem_ctrls2.rdQLenPdf::4                      0                       # What read queue length does an incoming req see
system.mem_ctrls2.rdQLenPdf::5                      0                       # What read queue length does an incoming req see
system.mem_ctrls2.rdQLenPdf::6                      0                       # What read queue length does an incoming req see
system.mem_ctrls2.rdQLenPdf::7                      0                       # What read queue length does an incoming req see
system.mem_ctrls2.rdQLenPdf::8                      0                       # What read queue length does an incoming req see
system.mem_ctrls2.rdQLenPdf::9                      0                       # What read queue length does an incoming req see
system.mem_ctrls2.rdQLenPdf::10                     0                       # What read queue length does an incoming req see
system.mem_ctrls2.rdQLenPdf::11                     0                       # What read queue length does an incoming req see
system.mem_ctrls2.rdQLenPdf::12                     0                       # What read queue length does an incoming req see
system.mem_ctrls2.rdQLenPdf::13                     0                       # What read queue length does an incoming req see
system.mem_ctrls2.rdQLenPdf::14                     0                       # What read queue length does an incoming req see
system.mem_ctrls2.rdQLenPdf::15                     0                       # What read queue length does an incoming req see
system.mem_ctrls2.rdQLenPdf::16                     0                       # What read queue length does an incoming req see
system.mem_ctrls2.rdQLenPdf::17                     0                       # What read queue length does an incoming req see
system.mem_ctrls2.rdQLenPdf::18                     0                       # What read queue length does an incoming req see
system.mem_ctrls2.rdQLenPdf::19                     0                       # What read queue length does an incoming req see
system.mem_ctrls2.rdQLenPdf::20                     0                       # What read queue length does an incoming req see
system.mem_ctrls2.rdQLenPdf::21                     0                       # What read queue length does an incoming req see
system.mem_ctrls2.rdQLenPdf::22                     0                       # What read queue length does an incoming req see
system.mem_ctrls2.rdQLenPdf::23                     0                       # What read queue length does an incoming req see
system.mem_ctrls2.rdQLenPdf::24                     0                       # What read queue length does an incoming req see
system.mem_ctrls2.rdQLenPdf::25                     0                       # What read queue length does an incoming req see
system.mem_ctrls2.rdQLenPdf::26                     0                       # What read queue length does an incoming req see
system.mem_ctrls2.rdQLenPdf::27                     0                       # What read queue length does an incoming req see
system.mem_ctrls2.rdQLenPdf::28                     0                       # What read queue length does an incoming req see
system.mem_ctrls2.rdQLenPdf::29                     0                       # What read queue length does an incoming req see
system.mem_ctrls2.rdQLenPdf::30                     0                       # What read queue length does an incoming req see
system.mem_ctrls2.rdQLenPdf::31                     0                       # What read queue length does an incoming req see
system.mem_ctrls2.wrQLenPdf::0                      0                       # What write queue length does an incoming req see
system.mem_ctrls2.wrQLenPdf::1                      0                       # What write queue length does an incoming req see
system.mem_ctrls2.wrQLenPdf::2                      0                       # What write queue length does an incoming req see
system.mem_ctrls2.wrQLenPdf::3                      0                       # What write queue length does an incoming req see
system.mem_ctrls2.wrQLenPdf::4                      0                       # What write queue length does an incoming req see
system.mem_ctrls2.wrQLenPdf::5                      0                       # What write queue length does an incoming req see
system.mem_ctrls2.wrQLenPdf::6                      0                       # What write queue length does an incoming req see
system.mem_ctrls2.wrQLenPdf::7                      0                       # What write queue length does an incoming req see
system.mem_ctrls2.wrQLenPdf::8                      0                       # What write queue length does an incoming req see
system.mem_ctrls2.wrQLenPdf::9                      0                       # What write queue length does an incoming req see
system.mem_ctrls2.wrQLenPdf::10                     0                       # What write queue length does an incoming req see
system.mem_ctrls2.wrQLenPdf::11                     0                       # What write queue length does an incoming req see
system.mem_ctrls2.wrQLenPdf::12                     0                       # What write queue length does an incoming req see
system.mem_ctrls2.wrQLenPdf::13                     0                       # What write queue length does an incoming req see
system.mem_ctrls2.wrQLenPdf::14                     0                       # What write queue length does an incoming req see
system.mem_ctrls2.wrQLenPdf::15                 14423                       # What write queue length does an incoming req see
[...]
system.ruby.L1Cache_Controller.O.Store::total          281                      
system.ruby.L1Cache_Controller.O.L1_Replacement |         230     37.04%     37.04% |          98     15.78%     52.82% |         161     25.93%     78.74% |         132     21.26%    100.00%
system.ruby.L1Cache_Controller.O.L1_Replacement::total          621                      
system.ruby.L1Cache_Controller.O.Fwd_GETX |        1609     26.96%     26.96% |         145      2.43%     29.39% |        1984     33.24%     62.63% |        2230     37.37%    100.00%
system.ruby.L1Cache_Controller.O.Fwd_GETX::total         5968                      
system.ruby.L1Cache_Controller.O.Fwd_GETS |         411      7.24%      7.24% |         191      3.37%     10.61% |        2472     43.57%     54.19% |        2599     45.81%    100.00%
system.ruby.L1Cache_Controller.O.Fwd_GETS::total         5673                      
system.ruby.L1Cache_Controller.M.Load    |       28097      0.54%      0.54% |     4960417     95.83%     96.38% |       35180      0.68%     97.06% |      152344      2.94%    100.00%
system.ruby.L1Cache_Controller.M.Load::total      5176038                      
system.ruby.L1Cache_Controller.M.Store   |        1087      0.05%      0.05% |     2039062     97.82%     97.88% |        1790      0.09%     97.96% |       42486      2.04%    100.00%
system.ruby.L1Cache_Controller.M.Store::total      2084425                      
system.ruby.L1Cache_Controller.M.L1_Replacement |        1758      0.17%      0.17% |     1002318     98.11%     98.28% |        3859      0.38%     98.66% |       13689      1.34%    100.00%
system.ruby.L1Cache_Controller.M.L1_Replacement::total      1021624                      
system.ruby.L1Cache_Controller.M.Fwd_GETX |         516     33.57%     33.57% |          79      5.14%     38.71% |         737     47.95%     86.66% |         205     13.34%    100.00%
system.ruby.L1Cache_Controller.M.Fwd_GETX::total         1537                      
system.ruby.L1Cache_Controller.M.Fwd_GETS |        1919     28.23%     28.23% |         225      3.31%     31.54% |        2245     33.02%     64.56% |        2409     35.44%    100.00%
system.ruby.L1Cache_Controller.M.Fwd_GETS::total         6798                      
system.ruby.L1Cache_Controller.M_W.Load  |        3358      0.25%      0.25% |     1298469     94.86%     95.11% |        6551      0.48%     95.59% |       60388      4.41%    100.00%
system.ruby.L1Cache_Controller.M_W.Load::total      1368766                      
system.ruby.L1Cache_Controller.M_W.Store |         355      0.17%      0.17% |      207921     97.27%     97.43% |        1341      0.63%     98.06% |        4148      1.94%    100.00%
system.ruby.L1Cache_Controller.M_W.Store::total       213765                      
system.ruby.L1Cache_Controller.M_W.L1_Replacement |           5      0.91%      0.91% |         546     99.09%    100.00% |           0      0.00%    100.00% |           0      0.00%    100.00%
system.ruby.L1Cache_Controller.M_W.L1_Replacement::total          551                      
system.ruby.L1Cache_Controller.M_W.Fwd_GETX |          45     53.57%     53.57% |           6      7.14%     60.71% |           3      3.57%     64.29% |          30     35.71%    100.00%
system.ruby.L1Cache_Controller.M_W.Fwd_GETX::total           84                      
system.ruby.L1Cache_Controller.M_W.Fwd_GETS |         171     36.00%     36.00% |           6      1.26%     37.26% |         185     38.95%     76.21% |         113     23.79%    100.00%
system.ruby.L1Cache_Controller.M_W.Fwd_GETS::total          475                      
system.ruby.L1Cache_Controller.M_W.Use_Timeout |        5332      0.17%      0.17% |     3041668     97.66%     97.84% |        8598      0.28%     98.11% |       58793      1.89%    100.00%
system.ruby.L1Cache_Controller.M_W.Use_Timeout::total      3114391                      
system.ruby.L1Cache_Controller.MM.Load   |      304842      0.53%      0.53% |    55332254     95.34%     95.86% |      519707      0.90%     96.76% |     1880125      3.24%    100.00%
system.ruby.L1Cache_Controller.MM.Load::total     58036928                      
system.ruby.L1Cache_Controller.MM.Store  |      311865      0.63%      0.63% |    47055635     94.77%     95.40% |      534046      1.08%     96.47% |     1752392      3.53%    100.00%
system.ruby.L1Cache_Controller.MM.Store::total     49653938                      
system.ruby.L1Cache_Controller.MM.L1_Replacement |        5942      0.10%      0.10% |     6108780     98.39%     98.49% |       14666      0.24%     98.72% |       79389      1.28%    100.00%
system.ruby.L1Cache_Controller.MM.L1_Replacement::total      6208777                      
system.ruby.L1Cache_Controller.MM.Fwd_GETX |         815     24.06%     24.06% |         635     18.74%     42.80% |         735     21.69%     64.49% |        1203     35.51%    100.00%
system.ruby.L1Cache_Controller.MM.Fwd_GETX::total         3388                      
system.ruby.L1Cache_Controller.MM.Fwd_GETS |        2965     33.13%     33.13% |        1852     20.69%     53.82% |        1865     20.84%     74.66% |        2268     25.34%    100.00%
system.ruby.L1Cache_Controller.MM.Fwd_GETS::total         8950                      
system.ruby.L1Cache_Controller.MM.Fwd_DMA |           0      0.00%      0.00% |           2    100.00%    100.00% |           0      0.00%    100.00% |           0      0.00%    100.00%
system.ruby.L1Cache_Controller.MM.Fwd_DMA::total            2                      
system.ruby.L1Cache_Controller.MM_W.Load |         912      0.14%      0.14% |      620963     98.55%     98.70% |        1455      0.23%     98.93% |        6763      1.07%    100.00%
system.ruby.L1Cache_Controller.MM_W.Load::total       630093                      
system.ruby.L1Cache_Controller.MM_W.Store |       32601      0.55%      0.55% |     5692750     96.75%     97.31% |       68244      1.16%     98.47% |       90166      1.53%    100.00%
system.ruby.L1Cache_Controller.MM_W.Store::total      5883761                      
system.ruby.L1Cache_Controller.MM_W.L1_Replacement |           0      0.00%      0.00% |        2229    100.00%    100.00% |           0      0.00%    100.00% |           0      0.00%    100.00%
system.ruby.L1Cache_Controller.MM_W.L1_Replacement::total         2229                      
system.ruby.L1Cache_Controller.MM_W.Fwd_GETX |           9     24.32%     24.32% |           7     18.92%     43.24% |           7     18.92%     62.16% |          14     37.84%    100.00%
system.ruby.L1Cache_Controller.MM_W.Fwd_GETX::total           37                      
system.ruby.L1Cache_Controller.MM_W.Fwd_GETS |         528     34.31%     34.31% |         321     20.86%     55.17% |         545     35.41%     90.58% |         145      9.42%    100.00%
system.ruby.L1Cache_Controller.MM_W.Fwd_GETS::total         1539                      
system.ruby.L1Cache_Controller.MM_W.Use_Timeout |        8661      0.21%      0.21% |     4072144     98.44%     98.65% |       15474      0.37%     99.02% |       40382      0.98%    100.00%
system.ruby.L1Cache_Controller.MM_W.Use_Timeout::total      4136661                      
system.ruby.L1Cache_Controller.IM.Ack    |        2599     30.57%     30.57% |        2139     25.16%     55.73% |        1656     19.48%     75.21% |        2107     24.79%    100.00%
system.ruby.L1Cache_Controller.IM.Ack::total         8501                      
system.ruby.L1Cache_Controller.IM.Exclusive_Data |        6476      0.19%      0.19% |     3319022     98.49%     98.68% |       12029      0.36%     99.04% |       32379      0.96%    100.00%
system.ruby.L1Cache_Controller.IM.Exclusive_Data::total      3369906                      
system.ruby.L1Cache_Controller.SM.Inv    |           0      0.00%      0.00% |           0      0.00%      0.00% |           1    100.00%    100.00% |           0      0.00%    100.00%
system.ruby.L1Cache_Controller.SM.Inv::total            1                      
system.ruby.L1Cache_Controller.SM.Ack    |        2684     47.71%     47.71% |        1114     19.80%     67.51% |         911     16.19%     83.70% |         917     16.30%    100.00%
system.ruby.L1Cache_Controller.SM.Ack::total         5626                      
system.ruby.L1Cache_Controller.SM.Exclusive_Data |        1769      0.32%      0.32% |      545192     98.64%     98.96% |        1941      0.35%     99.31% |        3808      0.69%    100.00%
system.ruby.L1Cache_Controller.SM.Exclusive_Data::total       552710                      
system.ruby.L1Cache_Controller.OM.Own_GETX |          61     21.79%     21.79% |           9      3.21%     25.00% |         163     58.21%     83.21% |          47     16.79%    100.00%
system.ruby.L1Cache_Controller.OM.Own_GETX::total          280                      
system.ruby.L1Cache_Controller.OM.Fwd_GETX |           0      0.00%      0.00% |           0      0.00%      0.00% |           1    100.00%    100.00% |           0      0.00%    100.00%
system.ruby.L1Cache_Controller.OM.Fwd_GETX::total            1                      
system.ruby.L1Cache_Controller.OM.Ack    |         240     10.56%     10.56% |         506     22.27%     32.83% |         837     36.84%     69.67% |         689     30.33%    100.00%
system.ruby.L1Cache_Controller.OM.Ack::total         2272                      
system.ruby.L1Cache_Controller.OM.All_acks |        8306      0.21%      0.21% |     3864223     98.50%     98.72% |       14133      0.36%     99.08% |       36234      0.92%    100.00%
system.ruby.L1Cache_Controller.OM.All_acks::total      3922896                      
system.ruby.L1Cache_Controller.IS.Data   |       29698      1.12%      1.12% |     2538133     95.60%     96.72% |       36884      1.39%     98.11% |       50099      1.89%    100.00%
system.ruby.L1Cache_Controller.IS.Data::total      2654814                      
system.ruby.L1Cache_Controller.IS.Exclusive_Data |        5687      0.17%      0.17% |     3249589     97.64%     97.81% |        9939      0.30%     98.11% |       62941      1.89%    100.00%
system.ruby.L1Cache_Controller.IS.Exclusive_Data::total      3328156                      
system.ruby.L1Cache_Controller.SI.Load   |           0      0.00%      0.00% |          39     92.86%     92.86% |           0      0.00%     92.86% |           3      7.14%    100.00%
system.ruby.L1Cache_Controller.SI.Load::total           42                      
system.ruby.L1Cache_Controller.SI.Ifetch |           0      0.00%      0.00% |           6    100.00%    100.00% |           0      0.00%    100.00% |           0      0.00%    100.00%
system.ruby.L1Cache_Controller.SI.Ifetch::total            6                      
system.ruby.L1Cache_Controller.SI.Writeback_Ack |       24570      2.45%      2.45% |      917911     91.45%     93.90% |       27059      2.70%     96.60% |       34154      3.40%    100.00%
system.ruby.L1Cache_Controller.SI.Writeback_Ack::total      1003694                      
system.ruby.L1Cache_Controller.SI.Writeback_Ack_Data |        2693      0.25%      0.25% |     1074176     98.28%     98.53% |        5480      0.50%     99.03% |       10583      0.97%    100.00%
system.ruby.L1Cache_Controller.SI.Writeback_Ack_Data::total      1092932                      
system.ruby.L1Cache_Controller.OI.Writeback_Ack_Data |         230     37.04%     37.04% |          98     15.78%     52.82% |         161     25.93%     78.74% |         132     21.26%    100.00%
system.ruby.L1Cache_Controller.OI.Writeback_Ack_Data::total          621                      
system.ruby.L1Cache_Controller.MI.Load   |          12     44.44%     44.44% |           4     14.81%     59.26% |           8     29.63%     88.89% |           3     11.11%    100.00%
system.ruby.L1Cache_Controller.MI.Load::total           27                      
system.ruby.L1Cache_Controller.MI.Writeback_Ack_Data |        7700      0.11%      0.11% |     7111098     98.35%     98.46% |       18525      0.26%     98.71% |       93078      1.29%    100.00%
system.ruby.L1Cache_Controller.MI.Writeback_Ack_Data::total      7230401                      
system.ruby.L2Cache_Controller.L1_GETS        5983898      0.00%      0.00%
system.ruby.L2Cache_Controller.L1_GETX        3922916      0.00%      0.00%
system.ruby.L2Cache_Controller.L1_PUTO            621      0.00%      0.00%
system.ruby.L2Cache_Controller.L1_PUTX        7230401      0.00%      0.00%
system.ruby.L2Cache_Controller.L1_PUTS_only      1987498      0.00%      0.00%
system.ruby.L2Cache_Controller.L1_PUTS         109133      0.00%      0.00%
system.ruby.L2Cache_Controller.Fwd_GETX            17      0.00%      0.00%
system.ruby.L2Cache_Controller.Fwd_DMA              2      0.00%      0.00%
system.ruby.L2Cache_Controller.All_Acks       1593357      0.00%      0.00%
system.ruby.L2Cache_Controller.Data           3225813      0.00%      0.00%
system.ruby.L2Cache_Controller.L1_WBCLEANDATA      1092932      0.00%      0.00%
system.ruby.L2Cache_Controller.L1_WBDIRTYDATA      7231022      0.00%      0.00%
system.ruby.L2Cache_Controller.Writeback_Ack      1588224      0.00%      0.00%
system.ruby.L2Cache_Controller.Unblock        3658508      0.00%      0.00%
system.ruby.L2Cache_Controller.Exclusive_Unblock      7251052      0.00%      0.00%
system.ruby.L2Cache_Controller.DmaAck               2      0.00%      0.00%
system.ruby.L2Cache_Controller.L2_Replacement      2672182      0.00%      0.00%
system.ruby.L2Cache_Controller.NP.L1_GETS      1632456      0.00%      0.00%
system.ruby.L2Cache_Controller.NP.L1_GETX      1042104      0.00%      0.00%
system.ruby.L2Cache_Controller.ILS.L1_GETS         5686      0.00%      0.00%
system.ruby.L2Cache_Controller.ILS.L1_GETX       546565      0.00%      0.00%
system.ruby.L2Cache_Controller.ILS.L1_PUTS_only      1086387      0.00%      0.00%
system.ruby.L2Cache_Controller.ILS.L1_PUTS         6545      0.00%      0.00%
system.ruby.L2Cache_Controller.ILX.L1_GETS        15748      0.00%      0.00%
system.ruby.L2Cache_Controller.ILX.L1_GETX         4925      0.00%      0.00%
system.ruby.L2Cache_Controller.ILX.L1_PUTX      7230401      0.00%      0.00%
system.ruby.L2Cache_Controller.ILX.Fwd_DMA            2      0.00%      0.00%
system.ruby.L2Cache_Controller.ILOX.L1_GETS         2443      0.00%      0.00%
system.ruby.L2Cache_Controller.ILOX.L1_GETX          238      0.00%      0.00%
system.ruby.L2Cache_Controller.ILOX.L1_PUTO          337      0.00%      0.00%
system.ruby.L2Cache_Controller.ILOSX.L1_GETS         3230      0.00%      0.00%
system.ruby.L2Cache_Controller.ILOSX.L1_GETX         6011      0.00%      0.00%
system.ruby.L2Cache_Controller.ILOSX.L1_PUTO          284      0.00%      0.00%
system.ruby.L2Cache_Controller.ILOSX.L1_PUTS_only         3033      0.00%      0.00%
system.ruby.L2Cache_Controller.ILOSX.L1_PUTS         1363      0.00%      0.00%
system.ruby.L2Cache_Controller.S.L1_GETS       901552      0.00%      0.00%
system.ruby.L2Cache_Controller.S.L1_GETX         1882      0.00%      0.00%
system.ruby.L2Cache_Controller.S.L2_Replacement      1076819      0.00%      0.00%
system.ruby.L2Cache_Controller.OLSX.L1_GETS          868      0.00%      0.00%
system.ruby.L2Cache_Controller.OLSX.L1_GETX           98      0.00%      0.00%
system.ruby.L2Cache_Controller.OLSX.L1_PUTS_only          201      0.00%      0.00%
system.ruby.L2Cache_Controller.OLSX.L1_PUTS          826      0.00%      0.00%
system.ruby.L2Cache_Controller.OLSX.L2_Replacement           24      0.00%      0.00%
system.ruby.L2Cache_Controller.SLS.L1_GETS       101781      0.00%      0.00%
system.ruby.L2Cache_Controller.SLS.L1_GETX         2806      0.00%      0.00%
system.ruby.L2Cache_Controller.SLS.L1_PUTS_only       897876      0.00%      0.00%
system.ruby.L2Cache_Controller.SLS.L1_PUTS       100395      0.00%      0.00%
system.ruby.L2Cache_Controller.SLS.L2_Replacement         7139      0.00%      0.00%
system.ruby.L2Cache_Controller.M.L1_GETS      3319206      0.00%      0.00%
system.ruby.L2Cache_Controller.M.L1_GETX      2318267      0.00%      0.00%
system.ruby.L2Cache_Controller.M.Fwd_GETX           17      0.00%      0.00%
system.ruby.L2Cache_Controller.M.L2_Replacement      1588200      0.00%      0.00%
system.ruby.L2Cache_Controller.ILOXW.L1_WBDIRTYDATA          337      0.00%      0.00%
system.ruby.L2Cache_Controller.ILOXW.Unblock         3033      0.00%      0.00%
system.ruby.L2Cache_Controller.ILOSXW.L1_WBDIRTYDATA          284      0.00%      0.00%
system.ruby.L2Cache_Controller.ILOSXW.Unblock         1363      0.00%      0.00%
system.ruby.L2Cache_Controller.SLSW.L1_GETS            2      0.00%      0.00%
system.ruby.L2Cache_Controller.SLSW.L1_PUTS            1      0.00%      0.00%
system.ruby.L2Cache_Controller.SLSW.Unblock       100395      0.00%      0.00%
system.ruby.L2Cache_Controller.ILSW.L1_WBCLEANDATA         6545      0.00%      0.00%
system.ruby.L2Cache_Controller.IW.L1_GETS            1      0.00%      0.00%
system.ruby.L2Cache_Controller.IW.L1_WBCLEANDATA      1086387      0.00%      0.00%
system.ruby.L2Cache_Controller.SW.Unblock       897876      0.00%      0.00%
system.ruby.L2Cache_Controller.OXW.Unblock          201      0.00%      0.00%
system.ruby.L2Cache_Controller.OLSXW.Unblock          826      0.00%      0.00%
system.ruby.L2Cache_Controller.ILXW.L1_WBDIRTYDATA      7230401      0.00%      0.00%
system.ruby.L2Cache_Controller.IFLS.L1_GETS            3      0.00%      0.00%
system.ruby.L2Cache_Controller.IFLS.Unblock         5686      0.00%      0.00%
system.ruby.L2Cache_Controller.IFLOX.Unblock         2443      0.00%      0.00%
system.ruby.L2Cache_Controller.IFLOX.Exclusive_Unblock           98      0.00%      0.00%
system.ruby.L2Cache_Controller.IFLOXX.L1_GETS          155      0.00%      0.00%
system.ruby.L2Cache_Controller.IFLOXX.L1_GETX           14      0.00%      0.00%
system.ruby.L2Cache_Controller.IFLOXX.Unblock         6798      0.00%      0.00%
system.ruby.L2Cache_Controller.IFLOXX.Exclusive_Unblock        14113      0.00%      0.00%
system.ruby.L2Cache_Controller.IFLOSX.Unblock         3230      0.00%      0.00%
system.ruby.L2Cache_Controller.IFLXO.L1_GETS          127      0.00%      0.00%
system.ruby.L2Cache_Controller.IFLXO.L1_GETX            6      0.00%      0.00%
system.ruby.L2Cache_Controller.IFLXO.Exclusive_Unblock         6011      0.00%      0.00%
system.ruby.L2Cache_Controller.IGS.L1_GETS          632      0.00%      0.00%
system.ruby.L2Cache_Controller.IGS.Data       1632456      0.00%      0.00%
system.ruby.L2Cache_Controller.IGS.Unblock      1632456      0.00%      0.00%
system.ruby.L2Cache_Controller.IGM.Data       1043986      0.00%      0.00%
system.ruby.L2Cache_Controller.IGMLS.Data       549371      0.00%      0.00%
system.ruby.L2Cache_Controller.IGMO.All_Acks      1593357      0.00%      0.00%
system.ruby.L2Cache_Controller.IGMO.Exclusive_Unblock      1593357      0.00%      0.00%
system.ruby.L2Cache_Controller.MM.Exclusive_Unblock      2318267      0.00%      0.00%
system.ruby.L2Cache_Controller.SS.L1_GETS            6      0.00%      0.00%
system.ruby.L2Cache_Controller.SS.Unblock       901552      0.00%      0.00%
system.ruby.L2Cache_Controller.OO.Exclusive_Unblock      3319206      0.00%      0.00%
system.ruby.L2Cache_Controller.OLSXS.Unblock          868      0.00%      0.00%
system.ruby.L2Cache_Controller.SLSS.L1_GETS            2      0.00%      0.00%
system.ruby.L2Cache_Controller.SLSS.L1_PUTS_only            1      0.00%      0.00%
system.ruby.L2Cache_Controller.SLSS.L1_PUTS            3      0.00%      0.00%
system.ruby.L2Cache_Controller.SLSS.Unblock       101781      0.00%      0.00%
system.ruby.L2Cache_Controller.MI.Writeback_Ack      1588200      0.00%      0.00%
system.ruby.L2Cache_Controller.OLSI.Writeback_Ack           24      0.00%      0.00%
system.ruby.L2Cache_Controller.ILXD.DmaAck            2      0.00%      0.00%

---------- End Simulation Statistics   ----------
