
---------- Begin Simulation Statistics ----------
sim_seconds                                  3.593807                       # Number of seconds simulated
sim_ticks                                3593806991000                       # Number of ticks simulated
final_tick                               56034554776001                       # Number of ticks from beginning of simulation (restored from checkpoints and never reset)
sim_freq                                 1000000000000                       # Frequency of simulated ticks
host_inst_rate                                 136007                       # Simulator instruction rate (inst/s)
host_op_rate                                   231632                       # Simulator op (including micro ops) rate (op/s)
host_tick_rate                              241863787                       # Simulator tick rate (ticks/s)
host_mem_usage                                1876104                       # Number of bytes of host memory used
host_seconds                                 14858.81                       # Real time elapsed on the host
sim_insts                                  2020908524                       # Number of instructions simulated
sim_ops                                    3441767475                       # Number of ops (including micro ops) simulated
system.voltage_domain.voltage                       1                       # Voltage in Volts
system.clk_domain.clock                          1000                       # Clock period in ticks
system.mem_ctrls.bytes_read::ruby.dir_cntrl0      1157760                       # Number of bytes read from this memory
system.mem_ctrls.bytes_read::total            1157760                       # Number of bytes read from this memory
system.mem_ctrls.bytes_written::ruby.dir_cntrl0       199360                       # Number of bytes written to this memory
system.mem_ctrls.bytes_written::total          199360                       # Number of bytes written to this memory
system.mem_ctrls.num_reads::ruby.dir_cntrl0        18090                       # Number of read requests responded to by this memory
system.mem_ctrls.num_reads::total               18090                       # Number of read requests responded to by this memory
system.mem_ctrls.num_writes::ruby.dir_cntrl0         3115                       # Number of write requests responded to by this memory
system.mem_ctrls.num_writes::total               3115                       # Number of write requests responded to by this memory
system.mem_ctrls.bw_read::ruby.dir_cntrl0       322154                       # Total read bandwidth from this memory (bytes/s)
system.mem_ctrls.bw_read::total                322154                       # Total read bandwidth from this memory (bytes/s)
system.mem_ctrls.bw_write::ruby.dir_cntrl0        55473                       # Write bandwidth from this memory (bytes/s)
system.mem_ctrls.bw_write::total                55473                       # Write bandwidth from this memory (bytes/s)
system.mem_ctrls.bw_total::ruby.dir_cntrl0       377627                       # Total bandwidth to/from this memory (bytes/s)
system.mem_ctrls.bw_total::total               377627                       # Total bandwidth to/from this memory (bytes/s)
system.mem_ctrls.readReqs                       18090                       # Number of read requests accepted
system.mem_ctrls.writeReqs                       3115                       # Number of write requests accepted
system.mem_ctrls.readBursts                     18090                       # Number of DRAM read bursts, including those serviced by the write queue
system.mem_ctrls.writeBursts                     3115                       # Number of DRAM write bursts, including those merged in the write queue
system.mem_ctrls.bytesReadDRAM                1157184                       # Total number of bytes read from DRAM
system.mem_ctrls.bytesReadWrQ                     576                       # Total number of bytes read from write queue
system.mem_ctrls.bytesWritten                  197504                       # Total number of bytes written to DRAM
system.mem_ctrls.bytesReadSys                 1157760                       # Total read bytes from the system interface side
system.mem_ctrls.bytesWrittenSys               199360                       # Total written bytes from the system interface side
system.mem_ctrls.servicedByWrQ                      9                       # Number of DRAM read bursts serviced by the write queue
system.mem_ctrls.mergedWrBursts                     0                       # Number of DRAM write bursts merged with an existing one
system.mem_ctrls.neitherReadNorWriteReqs            0                       # Number of requests that are neither read nor write
system.mem_ctrls.perBankRdBursts::0              1389                       # Per bank write bursts
system.mem_ctrls.perBankRdBursts::1              1034                       # Per bank write bursts
system.mem_ctrls.perBankRdBursts::2               955                       # Per bank write bursts
system.mem_ctrls.perBankRdBursts::3               993                       # Per bank write bursts
system.mem_ctrls.perBankRdBursts::4              1010                       # Per bank write bursts
system.mem_ctrls.perBankRdBursts::5              1252                       # Per bank write bursts
system.mem_ctrls.perBankRdBursts::6              1414                       # Per bank write bursts
system.mem_ctrls.perBankRdBursts::7              1518                       # Per bank write bursts
system.mem_ctrls.perBankRdBursts::8               964                       # Per bank write bursts
system.mem_ctrls.perBankRdBursts::9               868                       # Per bank write bursts
system.mem_ctrls.perBankRdBursts::10             1045                       # Per bank write bursts
system.mem_ctrls.perBankRdBursts::11             1021                       # Per bank write bursts
system.mem_ctrls.perBankRdBursts::12             1053                       # Per bank write bursts
system.mem_ctrls.perBankRdBursts::13             1094                       # Per bank write bursts
system.mem_ctrls.perBankRdBursts::14             1279                       # Per bank write bursts
system.mem_ctrls.perBankRdBursts::15             1192                       # Per bank write bursts
system.mem_ctrls.perBankWrBursts::0               348                       # Per bank write bursts
system.mem_ctrls.perBankWrBursts::1               327                       # Per bank write bursts
system.mem_ctrls.perBankWrBursts::2               387                       # Per bank write bursts
system.mem_ctrls.perBankWrBursts::3               385                       # Per bank write bursts
system.mem_ctrls.perBankWrBursts::4               391                       # Per bank write bursts
system.mem_ctrls.perBankWrBursts::5               261                       # Per bank write bursts
system.mem_ctrls.perBankWrBursts::6               193                       # Per bank write bursts
system.mem_ctrls.perBankWrBursts::7                29                       # Per bank write bursts
system.mem_ctrls.perBankWrBursts::8                64                       # Per bank write bursts
system.mem_ctrls.perBankWrBursts::9                 0                       # Per bank write bursts
system.mem_ctrls.perBankWrBursts::10               32                       # Per bank write bursts
system.mem_ctrls.perBankWrBursts::11                0                       # Per bank write bursts
system.mem_ctrls.perBankWrBursts::12              194                       # Per bank write bursts
system.mem_ctrls.perBankWrBursts::13              135                       # Per bank write bursts
system.mem_ctrls.perBankWrBursts::14              140                       # Per bank write bursts
system.mem_ctrls.perBankWrBursts::15              200                       # Per bank write bursts
system.mem_ctrls.numRdRetry                         0                       # Number of times read queue was full causing retry
system.mem_ctrls.numWrRetry                         0                       # Number of times write queue was full causing retry
system.mem_ctrls.totGap                  3593806942000                       # Total gap between requests
system.mem_ctrls.readPktSize::0                     0                       # Read request sizes (log2)
system.mem_ctrls.readPktSize::1                     0                       # Read request sizes (log2)
system.mem_ctrls.readPktSize::2                     0                       # Read request sizes (log2)
system.mem_ctrls.readPktSize::3                     0                       # Read request sizes (log2)
system.mem_ctrls.readPktSize::4                     0                       # Read request sizes (log2)
system.mem_ctrls.readPktSize::5                     0                       # Read request sizes (log2)
system.mem_ctrls.readPktSize::6                 18090                       # Read request sizes (log2)
system.mem_ctrls.writePktSize::0                    0                       # Write request sizes (log2)
system.mem_ctrls.writePktSize::1                    0                       # Write request sizes (log2)
system.mem_ctrls.writePktSize::2                    0                       # Write request sizes (log2)
system.mem_ctrls.writePktSize::3                    0                       # Write request sizes (log2)
system.mem_ctrls.writePktSize::4                    0                       # Write request sizes (log2)
system.mem_ctrls.writePktSize::5                    0                       # Write request sizes (log2)
system.mem_ctrls.writePktSize::6                 3115                       # Write request sizes (log2)
system.mem_ctrls.rdQLenPdf::0                   17922                       # What read queue length does an incoming req see
system.mem_ctrls.rdQLenPdf::1                     153                       # What read queue length does an incoming req see
system.mem_ctrls.rdQLenPdf::2                       6                       # What read queue length does an incoming req see
system.mem_ctrls.rdQLenPdf::3                       0                       # What read queue length does an incoming req see
system.mem_ctrls.rdQLenPdf::4                       0                       # What read queue length does an incoming req see
system.mem_ctrls.rdQLenPdf::5                       0                       # What read queue length does an incoming req see
system.mem_ctrls.rdQLenPdf::6                       0                       # What read queue length does an incoming req see
system.mem_ctrls.rdQLenPdf::7                       0                       # What read queue length does an incoming req see
system.mem_ctrls.rdQLenPdf::8                       0                       # What read queue length does an incoming req see
system.mem_ctrls.rdQLenPdf::9                       0                       # What read queue length does an incoming req see
system.mem_ctrls.rdQLenPdf::10                      0                       # What read queue length does an incoming req see
system.mem_ctrls.rdQLenPdf::11                      0                       # What read queue length does an incoming req see
system.mem_ctrls.rdQLenPdf::12                      0                       # What read queue length does an incoming req see
system.mem_ctrls.rdQLenPdf::13                      0                       # What read queue length does an incoming req see
system.mem_ctrls.rdQLenPdf::14                      0                       # What read queue length does an incoming req see
system.mem_ctrls.rdQLenPdf::15                      0                       # What read queue length does an incoming req see
system.mem_ctrls.rdQLenPdf::16                      0                       # What read queue length does an incoming req see
system.mem_ctrls.rdQLenPdf::17                      0                       # What read queue length does an incoming req see
system.mem_ctrls.rdQLenPdf::18                      0                       # What read queue length does an incoming req see
system.mem_ctrls.rdQLenPdf::19                      0                       # What read queue length does an incoming req see
system.mem_ctrls.rdQLenPdf::20                      0                       # What read queue length does an incoming req see
system.mem_ctrls.rdQLenPdf::21                      0                       # What read queue length does an incoming req see
system.mem_ctrls.rdQLenPdf::22                      0                       # What read queue length does an incoming req see
system.mem_ctrls.rdQLenPdf::23                      0                       # What read queue length does an incoming req see
system.mem_ctrls.rdQLenPdf::24                      0                       # What read queue length does an incoming req see
system.mem_ctrls.rdQLenPdf::25                      0                       # What read queue length does an incoming req see
system.mem_ctrls.rdQLenPdf::26                      0                       # What read queue length does an incoming req see
system.mem_ctrls.rdQLenPdf::27                      0                       # What read queue length does an incoming req see
system.mem_ctrls.rdQLenPdf::28                      0                       # What read queue length does an incoming req see
system.mem_ctrls.rdQLenPdf::29                      0                       # What read queue length does an incoming req see
system.mem_ctrls.rdQLenPdf::30                      0                       # What read queue length does an incoming req see
system.mem_ctrls.rdQLenPdf::31                      0                       # What read queue length does an incoming req see
system.mem_ctrls.wrQLenPdf::0                       1                       # What write queue length does an incoming req see
system.mem_ctrls.wrQLenPdf::1                       1                       # What write queue length does an incoming req see
system.mem_ctrls.wrQLenPdf::2                       1                       # What write queue length does an incoming req see
system.mem_ctrls.wrQLenPdf::3                       1                       # What write queue length does an incoming req see
system.mem_ctrls.wrQLenPdf::4                       1                       # What write queue length does an incoming req see
system.mem_ctrls.wrQLenPdf::5                       1                       # What write queue length does an incoming req see
system.mem_ctrls.wrQLenPdf::6                       1                       # What write queue length does an incoming req see
system.mem_ctrls.wrQLenPdf::7                       1                       # What write queue length does an incoming req see
system.mem_ctrls.wrQLenPdf::8                       1                       # What write queue length does an incoming req see
system.mem_ctrls.wrQLenPdf::9                       1                       # What write queue length does an incoming req see
system.mem_ctrls.wrQLenPdf::10                      1                       # What write queue length does an incoming req see
system.mem_ctrls.wrQLenPdf::11                      1                       # What write queue length does an incoming req see
system.mem_ctrls.wrQLenPdf::12                      1                       # What write queue length does an incoming req see
system.mem_ctrls.wrQLenPdf::13                      1                       # What write queue length does an incoming req see
system.mem_ctrls.wrQLenPdf::14                      1                       # What write queue length does an incoming req see
system.mem_ctrls.wrQLenPdf::15                    138                       # What write queue length does an incoming req see
system.mem_ctrls.wrQLenPdf::16                    157                       # What write queue length does an incoming req see
system.mem_ctrls.wrQLenPdf::17                    185                       # What write queue length does an incoming req see
system.mem_ctrls.wrQLenPdf::18                    173                       # What write queue length does an incoming req see
system.mem_ctrls.wrQLenPdf::19                    173                       # What write queue length does an incoming req see
system.mem_ctrls.wrQLenPdf::20                    256                       # What write queue length does an incoming req see
system.mem_ctrls.wrQLenPdf::21                    177                       # What write queue length does an incoming req see
system.mem_ctrls.wrQLenPdf::22                    175                       # What write queue length does an incoming req see
system.mem_ctrls.wrQLenPdf::23                    185                       # What write queue length does an incoming req see
system.mem_ctrls.wrQLenPdf::24                    166                       # What write queue length does an incoming req see
system.mem_ctrls.wrQLenPdf::25                    165                       # What write queue length does an incoming req see
system.mem_ctrls.wrQLenPdf::26                    190                       # What write queue length does an incoming req see
system.mem_ctrls.wrQLenPdf::27                    161                       # What write queue length does an incoming req see
system.mem_ctrls.wrQLenPdf::28                    163                       # What write queue length does an incoming req see
system.mem_ctrls.wrQLenPdf::29                    156                       # What write queue length does an incoming req see
system.mem_ctrls.wrQLenPdf::30                    155                       # What write queue length does an incoming req see
system.mem_ctrls.wrQLenPdf::31                    163                       # What write queue length does an incoming req see
system.mem_ctrls.wrQLenPdf::32                    153                       # What write queue length does an incoming req see
system.mem_ctrls.wrQLenPdf::33                      3                       # What write queue length does an incoming req see
system.mem_ctrls.wrQLenPdf::34                      2                       # What write queue length does an incoming req see
system.mem_ctrls.wrQLenPdf::35                      2                       # What write queue length does an incoming req see
system.mem_ctrls.wrQLenPdf::36                      2                       # What write queue length does an incoming req see
system.mem_ctrls.wrQLenPdf::37                      0                       # What write queue length does an incoming req see
system.mem_ctrls.wrQLenPdf::38                      0                       # What write queue length does an incoming req see
system.mem_ctrls.wrQLenPdf::39                      0                       # What write queue length does an incoming req see
system.mem_ctrls.wrQLenPdf::40                      0                       # What write queue length does an incoming req see
system.mem_ctrls.wrQLenPdf::41                      0                       # What write queue length does an incoming req see
system.mem_ctrls.wrQLenPdf::42                      0                       # What write queue length does an incoming req see
system.mem_ctrls.wrQLenPdf::43                      0                       # What write queue length does an incoming req see
system.mem_ctrls.wrQLenPdf::44                      0                       # What write queue length does an incoming req see
system.mem_ctrls.wrQLenPdf::45                      0                       # What write queue length does an incoming req see
system.mem_ctrls.wrQLenPdf::46                      0                       # What write queue length does an incoming req see
system.mem_ctrls.wrQLenPdf::47                      0                       # What write queue length does an incoming req see
system.mem_ctrls.wrQLenPdf::48                      0                       # What write queue length does an incoming req see
system.mem_ctrls.wrQLenPdf::49                      0                       # What write queue length does an incoming req see
system.mem_ctrls.wrQLenPdf::50                      0                       # What write queue length does an incoming req see
system.mem_ctrls.wrQLenPdf::51                      0                       # What write queue length does an incoming req see
system.mem_ctrls.wrQLenPdf::52                      0                       # What write queue length does an incoming req see
system.mem_ctrls.wrQLenPdf::53                      0                       # What write queue length does an incoming req see
system.mem_ctrls.wrQLenPdf::54                      0                       # What write queue length does an incoming req see
system.mem_ctrls.wrQLenPdf::55                      0                       # What write queue length does an incoming req see
system.mem_ctrls.wrQLenPdf::56                      0                       # What write queue length does an incoming req see
system.mem_ctrls.wrQLenPdf::57                      0                       # What write queue length does an incoming req see
system.mem_ctrls.wrQLenPdf::58                      0                       # What write queue length does an incoming req see
system.mem_ctrls.wrQLenPdf::59                      0                       # What write queue length does an incoming req see
system.mem_ctrls.wrQLenPdf::60                      0                       # What write queue length does an incoming req see
system.mem_ctrls.wrQLenPdf::61                      0                       # What write queue length does an incoming req see
system.mem_ctrls.wrQLenPdf::62                      0                       # What write queue length does an incoming req see
system.mem_ctrls.wrQLenPdf::63                      0                       # What write queue length does an incoming req see
system.mem_ctrls.bytesPerActivate::samples         4492                       # Bytes accessed per row activation
system.mem_ctrls.bytesPerActivate::mean    301.577916                       # Bytes accessed per row activation
system.mem_ctrls.bytesPerActivate::gmean   161.872438                       # Bytes accessed per row activation
system.mem_ctrls.bytesPerActivate::stdev   357.379437                       # Bytes accessed per row activation
system.mem_ctrls.bytesPerActivate::0-127         2042     45.46%     45.46% # Bytes accessed per row activation
system.mem_ctrls.bytesPerActivate::128-255         1029     22.91%     68.37% # Bytes accessed per row activation
system.mem_ctrls.bytesPerActivate::256-383          264      5.88%     74.24% # Bytes accessed per row activation
system.mem_ctrls.bytesPerActivate::384-511          158      3.52%     77.76% # Bytes accessed per row activation
system.mem_ctrls.bytesPerActivate::512-639           94      2.09%     79.85% # Bytes accessed per row activation
system.mem_ctrls.bytesPerActivate::640-767           74      1.65%     81.50% # Bytes accessed per row activation
system.mem_ctrls.bytesPerActivate::768-895           50      1.11%     82.61% # Bytes accessed per row activation
system.mem_ctrls.bytesPerActivate::896-1023           43      0.96%     83.57% # Bytes accessed per row activation
system.mem_ctrls.bytesPerActivate::1024-1151          738     16.43%    100.00% # Bytes accessed per row activation
system.mem_ctrls.bytesPerActivate::total         4492                       # Bytes accessed per row activation
system.mem_ctrls.rdPerTurnAround::samples          152                       # Reads before turning the bus around for writes
system.mem_ctrls.rdPerTurnAround::mean     222.052632                       # Reads before turning the bus around for writes
system.mem_ctrls.rdPerTurnAround::stdev   1491.764801                       # Reads before turning the bus around for writes
system.mem_ctrls.rdPerTurnAround::0-1023          146     96.05%     96.05% # Reads before turning the bus around for writes
system.mem_ctrls.rdPerTurnAround::1024-2047            2      1.32%     97.37% # Reads before turning the bus around for writes
system.mem_ctrls.rdPerTurnAround::2048-3071            1      0.66%     98.03% # Reads before turning the bus around for writes
system.mem_ctrls.rdPerTurnAround::4096-5119            1      0.66%     98.68% # Reads before turning the bus around for writes
system.mem_ctrls.rdPerTurnAround::5120-6143            1      0.66%     99.34% # Reads before turning the bus around for writes
system.mem_ctrls.rdPerTurnAround::16384-17407            1      0.66%    100.00% # Reads before turning the bus around for writes
system.mem_ctrls.rdPerTurnAround::total           152                       # Reads before turning the bus around for writes
system.mem_ctrls.wrPerTurnAround::samples          152                       # Writes before turning the bus around for reads
system.mem_ctrls.wrPerTurnAround::mean      20.302632                       # Writes before turning the bus around for reads
system.mem_ctrls.wrPerTurnAround::gmean     20.181126                       # Writes before turning the bus around for reads
system.mem_ctrls.wrPerTurnAround::stdev      2.249472                       # Writes before turning the bus around for reads
system.mem_ctrls.wrPerTurnAround::16               15      9.87%      9.87% # Writes before turning the bus around for reads
system.mem_ctrls.wrPerTurnAround::18                9      5.92%     15.79% # Writes before turning the bus around for reads
system.mem_ctrls.wrPerTurnAround::19               25     16.45%     32.24% # Writes before turning the bus around for reads
system.mem_ctrls.wrPerTurnAround::20               18     11.84%     44.08% # Writes before turning the bus around for reads
system.mem_ctrls.wrPerTurnAround::21               54     35.53%     79.61% # Writes before turning the bus around for reads
system.mem_ctrls.wrPerTurnAround::22               15      9.87%     89.47% # Writes before turning the bus around for reads
system.mem_ctrls.wrPerTurnAround::23               13      8.55%     98.03% # Writes before turning the bus around for reads
system.mem_ctrls.wrPerTurnAround::25                1      0.66%     98.68% # Writes before turning the bus around for reads
system.mem_ctrls.wrPerTurnAround::30                1      0.66%     99.34% # Writes before turning the bus around for reads
system.mem_ctrls.wrPerTurnAround::31                1      0.66%    100.00% # Writes before turning the bus around for reads
system.mem_ctrls.wrPerTurnAround::total           152                       # Writes before turning the bus around for reads
system.mem_ctrls.totQLat                    127134500                       # Total ticks spent queuing
system.mem_ctrls.totMemAccLat               466153250                       # Total ticks spent from burst creation until serviced by the DRAM
system.mem_ctrls.totBusLat                   90405000                       # Total ticks spent in databus transfers
system.mem_ctrls.avgQLat                      7031.39                       # Average queueing delay per DRAM burst
system.mem_ctrls.avgBusLat                    5000.00                       # Average bus latency per DRAM burst
system.mem_ctrls.avgMemAccLat                25781.39                       # Average memory access latency per DRAM burst
system.mem_ctrls.avgRdBW                         0.32                       # Average DRAM read bandwidth in MiByte/s
system.mem_ctrls.avgWrBW                         0.05                       # Average achieved write bandwidth in MiByte/s
system.mem_ctrls.avgRdBWSys                      0.32                       # Average system read bandwidth in MiByte/s
system.mem_ctrls.avgWrBWSys                      0.06                       # Average system write bandwidth in MiByte/s
system.mem_ctrls.peakBW                      12800.00                       # Theoretical peak bandwidth in MiByte/s
system.mem_ctrls.busUtil                         0.00                       # Data bus utilization in percentage
system.mem_ctrls.busUtilRead                     0.00                       # Data bus utilization in percentage for reads
system.mem_ctrls.busUtilWrite                    0.00                       # Data bus utilization in percentage for writes
system.mem_ctrls.avgRdQLen                       1.00                       # Average read queue length when enqueuing
system.mem_ctrls.avgWrQLen                      21.59                       # Average write queue length when enqueuing
system.mem_ctrls.readRowHits                    13874                       # Number of row buffer hits during reads
system.mem_ctrls.writeRowHits                    2801                       # Number of row buffer hits during writes
system.mem_ctrls.readRowHitRate                 76.73                       # Row buffer hit rate for reads
system.mem_ctrls.writeRowHitRate                89.92                       # Row buffer hit rate for writes
system.mem_ctrls.avgGap                  169479223.86                       # Average gap between requests
system.mem_ctrls.pageHitRate                    78.67                       # Row buffer hit rate, read and write combined
system.mem_ctrls_0.actEnergy                 32530680                       # Energy for activate commands per rank (pJ)
system.mem_ctrls_0.preEnergy                 17749875                       # Energy for precharge commands per rank (pJ)
system.mem_ctrls_0.readEnergy               130704600                       # Energy for read commands per rank (pJ)
system.mem_ctrls_0.writeEnergy               15040080                       # Energy for write commands per rank (pJ)
system.mem_ctrls_0.refreshEnergy         234952685760                       # Energy for refresh commands per rank (pJ)
system.mem_ctrls_0.actBackEnergy          81193826700                       # Energy for active background per rank (pJ)
system.mem_ctrls_0.preBackEnergy         2087107314000                       # Energy for precharge background per rank (pJ)
system.mem_ctrls_0.totalEnergy           2403449851695                       # Total energy per rank (pJ)
system.mem_ctrls_0.averagePower            668.141541                       # Core power per rank (mW)
system.mem_ctrls_0.memoryStateTime::IDLE 3470858827250                       # Time in different power states
system.mem_ctrls_0.memoryStateTime::REF  120005080000                       # Time in different power states
system.mem_ctrls_0.memoryStateTime::PRE_PDN            0                       # Time in different power states
system.mem_ctrls_0.memoryStateTime::ACT    2944161750                       # Time in different power states
system.mem_ctrls_0.memoryStateTime::ACT_PDN            0                       # Time in different power states
system.mem_ctrls_1.actEnergy                 31366440                       # Energy for activate commands per rank (pJ)
system.mem_ctrls_1.preEnergy                 17114625                       # Energy for precharge commands per rank (pJ)
system.mem_ctrls_1.readEnergy               132631200                       # Energy for read commands per rank (pJ)
system.mem_ctrls_1.writeEnergy                4957200                       # Energy for write commands per rank (pJ)
system.mem_ctrls_1.refreshEnergy         234952685760                       # Energy for refresh commands per rank (pJ)
system.mem_ctrls_1.actBackEnergy          81413126505                       # Energy for active background per rank (pJ)
system.mem_ctrls_1.preBackEnergy         2086914937500                       # Energy for precharge background per rank (pJ)
system.mem_ctrls_1.totalEnergy           2403466819230                       # Total energy per rank (pJ)
system.mem_ctrls_1.averagePower            668.146260                       # Core power per rank (mW)
system.mem_ctrls_1.memoryStateTime::IDLE 3470467341250                       # Time in different power states
system.mem_ctrls_1.memoryStateTime::REF  120005080000                       # Time in different power states
system.mem_ctrls_1.memoryStateTime::PRE_PDN            0                       # Time in different power states
system.mem_ctrls_1.memoryStateTime::ACT    3333542500                       # Time in different power states
system.mem_ctrls_1.memoryStateTime::ACT_PDN            0                       # Time in different power states
system.cpu_voltage_domain.voltage                   1                       # Voltage in Volts
system.cpu_clk_domain.clock                       500                       # Clock period in ticks
system.cpu0.apic_clk_domain.clock                8000                       # Clock period in ticks
system.cpu0.numCycles                      7188801364                       # number of cpu cycles simulated
system.cpu0.numWorkItemsStarted                     0                       # number of work items this cpu started
system.cpu0.numWorkItemsCompleted                   0                       # number of work items this cpu completed
system.cpu0.kern.inst.arm                           0                       # number of arm instructions executed
system.cpu0.kern.inst.quiesce                       0                       # number of quiesce instructions executed
system.cpu0.committedInsts                 1994441767                       # Number of instructions committed
system.cpu0.committedOps                   3392919142                       # Number of ops (including micro ops) committed
system.cpu0.num_int_alu_accesses           2757563732                       # Number of integer alu accesses
system.cpu0.num_fp_alu_accesses            1010088632                       # Number of float alu accesses
system.cpu0.num_func_calls                   49946542                       # number of times a function call or return occured
system.cpu0.num_conditional_control_insts    199813774                       # number of instructions that are conditional controls
system.cpu0.num_int_insts                  2757563732                       # number of integer instructions
system.cpu0.num_fp_insts                   1010088632                       # number of float instructions
system.cpu0.num_int_register_reads         5218324004                       # number of times the integer registers were read
system.cpu0.num_int_register_writes        2052604530                       # number of times the integer registers were written
system.cpu0.num_fp_register_reads          1701898935                       # number of times the floating registers were read
system.cpu0.num_fp_register_writes          899765754                       # number of times the floating registers were written
system.cpu0.num_cc_register_reads          1288635240                       # number of times the CC registers were read
system.cpu0.num_cc_register_writes         1039376209                       # number of times the CC registers were written
system.cpu0.num_mem_refs                    738242707                       # number of memory refs
system.cpu0.num_load_insts                  571808047                       # Number of load instructions
system.cpu0.num_store_insts                 166434660                       # Number of store instructions
system.cpu0.num_idle_cycles              63731380.580188                       # Number of idle cycles
system.cpu0.num_busy_cycles              7125069983.419812                       # Number of busy cycles
system.cpu0.not_idle_fraction                0.991135                       # Percentage of non-idle cycles
system.cpu0.idle_fraction                    0.008865                       # Percentage of idle cycles
system.cpu0.Branches                        261172948                       # Number of branches fetched
system.cpu0.op_class::No_OpClass              1512059      0.04%      0.04% # Class of executed instruction
system.cpu0.op_class::IntAlu               2189291480     64.53%     64.57% # Class of executed instruction
system.cpu0.op_class::IntMult                24043312      0.71%     65.28% # Class of executed instruction
system.cpu0.op_class::IntDiv                   210284      0.01%     65.28% # Class of executed instruction
system.cpu0.op_class::FloatAdd              439619455     12.96%     78.24% # Class of executed instruction
system.cpu0.op_class::FloatCmp                      0      0.00%     78.24% # Class of executed instruction
system.cpu0.op_class::FloatCvt                      0      0.00%     78.24% # Class of executed instruction
system.cpu0.op_class::FloatMult                     0      0.00%     78.24% # Class of executed instruction
system.cpu0.op_class::FloatDiv                      0      0.00%     78.24% # Class of executed instruction
system.cpu0.op_class::FloatSqrt                     0      0.00%     78.24% # Class of executed instruction
system.cpu0.op_class::SimdAdd                       0      0.00%     78.24% # Class of executed instruction
system.cpu0.op_class::SimdAddAcc                    0      0.00%     78.24% # Class of executed instruction
system.cpu0.op_class::SimdAlu                       0      0.00%     78.24% # Class of executed instruction
system.cpu0.op_class::SimdCmp                       0      0.00%     78.24% # Class of executed instruction
system.cpu0.op_class::SimdCvt                       0      0.00%     78.24% # Class of executed instruction
system.cpu0.op_class::SimdMisc                      0      0.00%     78.24% # Class of executed instruction
system.cpu0.op_class::SimdMult                      0      0.00%     78.24% # Class of executed instruction
system.cpu0.op_class::SimdMultAcc                   0      0.00%     78.24% # Class of executed instruction
system.cpu0.op_class::SimdShift                     0      0.00%     78.24% # Class of executed instruction
system.cpu0.op_class::SimdShiftAcc                  0      0.00%     78.24% # Class of executed instruction
system.cpu0.op_class::SimdSqrt                      0      0.00%     78.24% # Class of executed instruction
system.cpu0.op_class::SimdFloatAdd                  0      0.00%     78.24% # Class of executed instruction
system.cpu0.op_class::SimdFloatAlu                  0      0.00%     78.24% # Class of executed instruction
system.cpu0.op_class::SimdFloatCmp                  0      0.00%     78.24% # Class of executed instruction
system.cpu0.op_class::SimdFloatCvt                  0      0.00%     78.24% # Class of executed instruction
system.cpu0.op_class::SimdFloatDiv                  0      0.00%     78.24% # Class of executed instruction
system.cpu0.op_class::SimdFloatMisc                 0      0.00%     78.24% # Class of executed instruction
system.cpu0.op_class::SimdFloatMult                 0      0.00%     78.24% # Class of executed instruction
system.cpu0.op_class::SimdFloatMultAcc              0      0.00%     78.24% # Class of executed instruction
system.cpu0.op_class::SimdFloatSqrt                 0      0.00%     78.24% # Class of executed instruction
system.cpu0.op_class::MemRead               571808047     16.85%     95.09% # Class of executed instruction
system.cpu0.op_class::MemWrite              166434660      4.91%    100.00% # Class of executed instruction
system.cpu0.op_class::IprAccess                     0      0.00%    100.00% # Class of executed instruction
system.cpu0.op_class::InstPrefetch                  0      0.00%    100.00% # Class of executed instruction
system.cpu0.op_class::total                3392919297                       # Class of executed instruction
system.cpu1.apic_clk_domain.clock                8000                       # Clock period in ticks
system.cpu1.numCycles                      7185213741                       # number of cpu cycles simulated
system.cpu1.numWorkItemsStarted                     0                       # number of work items this cpu started
system.cpu1.numWorkItemsCompleted                   0                       # number of work items this cpu completed
system.cpu1.kern.inst.arm                           0                       # number of arm instructions executed
system.cpu1.kern.inst.quiesce                       0                       # number of quiesce instructions executed
system.cpu1.committedInsts                    2708347                       # Number of instructions committed
system.cpu1.committedOps                      5801186                       # Number of ops (including micro ops) committed
system.cpu1.num_int_alu_accesses              5676885                       # Number of integer alu accesses
system.cpu1.num_fp_alu_accesses                    65                       # Number of float alu accesses
system.cpu1.num_func_calls                     157869                       # number of times a function call or return occured
system.cpu1.num_conditional_control_insts       416972                       # number of instructions that are conditional controls
system.cpu1.num_int_insts                     5676885                       # number of integer instructions
system.cpu1.num_fp_insts                           65                       # number of float instructions
system.cpu1.num_int_register_reads           11503481                       # number of times the integer registers were read
system.cpu1.num_int_register_writes           4705653                       # number of times the integer registers were written
system.cpu1.num_fp_register_reads                  82                       # number of times the floating registers were read
system.cpu1.num_fp_register_writes                 44                       # number of times the floating registers were written
system.cpu1.num_cc_register_reads             3308172                       # number of times the CC registers were read
system.cpu1.num_cc_register_writes            1739089                       # number of times the CC registers were written
system.cpu1.num_mem_refs                      1368065                       # number of memory refs
system.cpu1.num_load_insts                     850562                       # Number of load instructions
system.cpu1.num_store_insts                    517503                       # Number of store instructions
system.cpu1.num_idle_cycles              7173721272.091791                       # Number of idle cycles
system.cpu1.num_busy_cycles              11492468.908209                       # Number of busy cycles
system.cpu1.not_idle_fraction                0.001599                       # Percentage of non-idle cycles
system.cpu1.idle_fraction                    0.998401                       # Percentage of idle cycles
system.cpu1.Branches                           626072                       # Number of branches fetched
system.cpu1.op_class::No_OpClass               105105      1.81%      1.81% # Class of executed instruction
system.cpu1.op_class::IntAlu                  4278548     73.75%     75.56% # Class of executed instruction
system.cpu1.op_class::IntMult                   11587      0.20%     75.76% # Class of executed instruction
system.cpu1.op_class::IntDiv                    37879      0.65%     76.42% # Class of executed instruction
system.cpu1.op_class::FloatAdd                     22      0.00%     76.42% # Class of executed instruction
system.cpu1.op_class::FloatCmp                      0      0.00%     76.42% # Class of executed instruction
system.cpu1.op_class::FloatCvt                      0      0.00%     76.42% # Class of executed instruction
system.cpu1.op_class::FloatMult                     0      0.00%     76.42% # Class of executed instruction
system.cpu1.op_class::FloatDiv                      0      0.00%     76.42% # Class of executed instruction
system.cpu1.op_class::FloatSqrt                     0      0.00%     76.42% # Class of executed instruction
system.cpu1.op_class::SimdAdd                       0      0.00%     76.42% # Class of executed instruction
system.cpu1.op_class::SimdAddAcc                    0      0.00%     76.42% # Class of executed instruction
system.cpu1.op_class::SimdAlu                       0      0.00%     76.42% # Class of executed instruction
system.cpu1.op_class::SimdCmp                       0      0.00%     76.42% # Class of executed instruction
system.cpu1.op_class::SimdCvt                       0      0.00%     76.42% # Class of executed instruction
system.cpu1.op_class::SimdMisc                      0      0.00%     76.42% # Class of executed instruction
system.cpu1.op_class::SimdMult                      0      0.00%     76.42% # Class of executed instruction
system.cpu1.op_class::SimdMultAcc                   0      0.00%     76.42% # Class of executed instruction
system.cpu1.op_class::SimdShift                     0      0.00%     76.42% # Class of executed instruction
system.cpu1.op_class::SimdShiftAcc                  0      0.00%     76.42% # Class of executed instruction
system.cpu1.op_class::SimdSqrt                      0      0.00%     76.42% # Class of executed instruction
system.cpu1.op_class::SimdFloatAdd                  0      0.00%     76.42% # Class of executed instruction
system.cpu1.op_class::SimdFloatAlu                  0      0.00%     76.42% # Class of executed instruction
system.cpu1.op_class::SimdFloatCmp                  0      0.00%     76.42% # Class of executed instruction
system.cpu1.op_class::SimdFloatCvt                  0      0.00%     76.42% # Class of executed instruction
system.cpu1.op_class::SimdFloatDiv                  0      0.00%     76.42% # Class of executed instruction
system.cpu1.op_class::SimdFloatMisc                 0      0.00%     76.42% # Class of executed instruction
system.cpu1.op_class::SimdFloatMult                 0      0.00%     76.42% # Class of executed instruction
system.cpu1.op_class::SimdFloatMultAcc              0      0.00%     76.42% # Class of executed instruction
system.cpu1.op_class::SimdFloatSqrt                 0      0.00%     76.42% # Class of executed instruction
system.cpu1.op_class::MemRead                  850562     14.66%     91.08% # Class of executed instruction
system.cpu1.op_class::MemWrite                 517503      8.92%    100.00% # Class of executed instruction
system.cpu1.op_class::IprAccess                     0      0.00%    100.00% # Class of executed instruction
system.cpu1.op_class::InstPrefetch                  0      0.00%    100.00% # Class of executed instruction
system.cpu1.op_class::total                   5801206                       # Class of executed instruction
system.cpu2.apic_clk_domain.clock                8000                       # Clock period in ticks
system.cpu2.numCycles                      7187178029                       # number of cpu cycles simulated
system.cpu2.numWorkItemsStarted                     0                       # number of work items this cpu started
system.cpu2.numWorkItemsCompleted                   0                       # number of work items this cpu completed
system.cpu2.kern.inst.arm                           0                       # number of arm instructions executed
system.cpu2.kern.inst.quiesce                       0                       # number of quiesce instructions executed
system.cpu2.committedInsts                    3275200                       # Number of instructions committed
system.cpu2.committedOps                      6822969                       # Number of ops (including micro ops) committed
system.cpu2.num_int_alu_accesses              6687260                       # Number of integer alu accesses
system.cpu2.num_fp_alu_accesses                  1837                       # Number of float alu accesses
system.cpu2.num_func_calls                     173384                       # number of times a function call or return occured
system.cpu2.num_conditional_control_insts       506553                       # number of instructions that are conditional controls
system.cpu2.num_int_insts                     6687260                       # number of integer instructions
system.cpu2.num_fp_insts                         1837                       # number of float instructions
system.cpu2.num_int_register_reads           13570904                       # number of times the integer registers were read
system.cpu2.num_int_register_writes           5521456                       # number of times the integer registers were written
system.cpu2.num_fp_register_reads                3081                       # number of times the floating registers were read
system.cpu2.num_fp_register_writes               1457                       # number of times the floating registers were written
system.cpu2.num_cc_register_reads             3892036                       # number of times the CC registers were read
system.cpu2.num_cc_register_writes            2107760                       # number of times the CC registers were written
system.cpu2.num_mem_refs                      1596219                       # number of memory refs
system.cpu2.num_load_insts                     988627                       # Number of load instructions
system.cpu2.num_store_insts                    607592                       # Number of store instructions
system.cpu2.num_idle_cycles              7173377108.127118                       # Number of idle cycles
system.cpu2.num_busy_cycles              13800920.872881                       # Number of busy cycles
system.cpu2.not_idle_fraction                0.001920                       # Percentage of non-idle cycles
system.cpu2.idle_fraction                    0.998080                       # Percentage of idle cycles
system.cpu2.Branches                           738822                       # Number of branches fetched
system.cpu2.op_class::No_OpClass               110995      1.63%      1.63% # Class of executed instruction
system.cpu2.op_class::IntAlu                  5062773     74.20%     75.83% # Class of executed instruction
system.cpu2.op_class::IntMult                   12353      0.18%     76.01% # Class of executed instruction
system.cpu2.op_class::IntDiv                    39351      0.58%     76.59% # Class of executed instruction
system.cpu2.op_class::FloatAdd                   1366      0.02%     76.61% # Class of executed instruction
system.cpu2.op_class::FloatCmp                      0      0.00%     76.61% # Class of executed instruction
system.cpu2.op_class::FloatCvt                      0      0.00%     76.61% # Class of executed instruction
system.cpu2.op_class::FloatMult                     0      0.00%     76.61% # Class of executed instruction
system.cpu2.op_class::FloatDiv                      0      0.00%     76.61% # Class of executed instruction
system.cpu2.op_class::FloatSqrt                     0      0.00%     76.61% # Class of executed instruction
system.cpu2.op_class::SimdAdd                       0      0.00%     76.61% # Class of executed instruction
system.cpu2.op_class::SimdAddAcc                    0      0.00%     76.61% # Class of executed instruction
system.cpu2.op_class::SimdAlu                       0      0.00%     76.61% # Class of executed instruction
system.cpu2.op_class::SimdCmp                       0      0.00%     76.61% # Class of executed instruction
system.cpu2.op_class::SimdCvt                       0      0.00%     76.61% # Class of executed instruction
system.cpu2.op_class::SimdMisc                      0      0.00%     76.61% # Class of executed instruction
system.cpu2.op_class::SimdMult                      0      0.00%     76.61% # Class of executed instruction
system.cpu2.op_class::SimdMultAcc                   0      0.00%     76.61% # Class of executed instruction
system.cpu2.op_class::SimdShift                     0      0.00%     76.61% # Class of executed instruction
system.cpu2.op_class::SimdShiftAcc                  0      0.00%     76.61% # Class of executed instruction
system.cpu2.op_class::SimdSqrt                      0      0.00%     76.61% # Class of executed instruction
system.cpu2.op_class::SimdFloatAdd                  0      0.00%     76.61% # Class of executed instruction
system.cpu2.op_class::SimdFloatAlu                  0      0.00%     76.61% # Class of executed instruction
system.cpu2.op_class::SimdFloatCmp                  0      0.00%     76.61% # Class of executed instruction
system.cpu2.op_class::SimdFloatCvt                  0      0.00%     76.61% # Class of executed instruction
system.cpu2.op_class::SimdFloatDiv                  0      0.00%     76.61% # Class of executed instruction
system.cpu2.op_class::SimdFloatMisc                 0      0.00%     76.61% # Class of executed instruction
system.cpu2.op_class::SimdFloatMult                 0      0.00%     76.61% # Class of executed instruction
system.cpu2.op_class::SimdFloatMultAcc              0      0.00%     76.61% # Class of executed instruction
system.cpu2.op_class::SimdFloatSqrt                 0      0.00%     76.61% # Class of executed instruction
system.cpu2.op_class::MemRead                  988627     14.49%     91.10% # Class of executed instruction
system.cpu2.op_class::MemWrite                 607592      8.90%    100.00% # Class of executed instruction
system.cpu2.op_class::IprAccess                     0      0.00%    100.00% # Class of executed instruction
system.cpu2.op_class::InstPrefetch                  0      0.00%    100.00% # Class of executed instruction
system.cpu2.op_class::total                   6823057                       # Class of executed instruction
system.cpu3.apic_clk_domain.clock                8000                       # Clock period in ticks
system.cpu3.numCycles                      7186067660                       # number of cpu cycles simulated
system.cpu3.numWorkItemsStarted                     0                       # number of work items this cpu started
system.cpu3.numWorkItemsCompleted                   0                       # number of work items this cpu completed
system.cpu3.kern.inst.arm                           0                       # number of arm instructions executed
system.cpu3.kern.inst.quiesce                       0                       # number of quiesce instructions executed
system.cpu3.committedInsts                   19094214                       # Number of instructions committed
system.cpu3.committedOps                     33663279                       # Number of ops (including micro ops) committed
system.cpu3.num_int_alu_accesses             28277268                       # Number of integer alu accesses
system.cpu3.num_fp_alu_accesses               8399271                       # Number of float alu accesses
system.cpu3.num_func_calls                     574409                       # number of times a function call or return occured
system.cpu3.num_conditional_control_insts      2011678                       # number of instructions that are conditional controls
system.cpu3.num_int_insts                    28277268                       # number of integer instructions
system.cpu3.num_fp_insts                      8399271                       # number of float instructions
system.cpu3.num_int_register_reads           54522265                       # number of times the integer registers were read
system.cpu3.num_int_register_writes          21484652                       # number of times the integer registers were written
system.cpu3.num_fp_register_reads            14064247                       # number of times the floating registers were read
system.cpu3.num_fp_register_writes            7474237                       # number of times the floating registers were written
system.cpu3.num_cc_register_reads            13692934                       # number of times the CC registers were read
system.cpu3.num_cc_register_writes           10131120                       # number of times the CC registers were written
system.cpu3.num_mem_refs                      7540149                       # number of memory refs
system.cpu3.num_load_insts                    5632368                       # Number of load instructions
system.cpu3.num_store_insts                   1907781                       # Number of store instructions
system.cpu3.num_idle_cycles              7115654916.656914                       # Number of idle cycles
system.cpu3.num_busy_cycles              70412743.343087                       # Number of busy cycles
system.cpu3.not_idle_fraction                0.009799                       # Percentage of non-idle cycles
system.cpu3.idle_fraction                    0.990201                       # Percentage of idle cycles
system.cpu3.Branches                          2733955                       # Number of branches fetched
system.cpu3.op_class::No_OpClass               117489      0.35%      0.35% # Class of executed instruction
system.cpu3.op_class::IntAlu                 22135300     65.75%     66.10% # Class of executed instruction
system.cpu3.op_class::IntMult                  212544      0.63%     66.74% # Class of executed instruction
system.cpu3.op_class::IntDiv                    39643      0.12%     66.85% # Class of executed instruction
system.cpu3.op_class::FloatAdd                3618197     10.75%     77.60% # Class of executed instruction
system.cpu3.op_class::FloatCmp                      0      0.00%     77.60% # Class of executed instruction
system.cpu3.op_class::FloatCvt                      0      0.00%     77.60% # Class of executed instruction
system.cpu3.op_class::FloatMult                     0      0.00%     77.60% # Class of executed instruction
system.cpu3.op_class::FloatDiv                      0      0.00%     77.60% # Class of executed instruction
system.cpu3.op_class::FloatSqrt                     0      0.00%     77.60% # Class of executed instruction
system.cpu3.op_class::SimdAdd                       0      0.00%     77.60% # Class of executed instruction
system.cpu3.op_class::SimdAddAcc                    0      0.00%     77.60% # Class of executed instruction
system.cpu3.op_class::SimdAlu                       0      0.00%     77.60% # Class of executed instruction
system.cpu3.op_class::SimdCmp                       0      0.00%     77.60% # Class of executed instruction
system.cpu3.op_class::SimdCvt                       0      0.00%     77.60% # Class of executed instruction
system.cpu3.op_class::SimdMisc                      0      0.00%     77.60% # Class of executed instruction
system.cpu3.op_class::SimdMult                      0      0.00%     77.60% # Class of executed instruction
system.cpu3.op_class::SimdMultAcc                   0      0.00%     77.60% # Class of executed instruction
system.cpu3.op_class::SimdShift                     0      0.00%     77.60% # Class of executed instruction
system.cpu3.op_class::SimdShiftAcc                  0      0.00%     77.60% # Class of executed instruction
system.cpu3.op_class::SimdSqrt                      0      0.00%     77.60% # Class of executed instruction
system.cpu3.op_class::SimdFloatAdd                  0      0.00%     77.60% # Class of executed instruction
system.cpu3.op_class::SimdFloatAlu                  0      0.00%     77.60% # Class of executed instruction
system.cpu3.op_class::SimdFloatCmp                  0      0.00%     77.60% # Class of executed instruction
system.cpu3.op_class::SimdFloatCvt                  0      0.00%     77.60% # Class of executed instruction
system.cpu3.op_class::SimdFloatDiv                  0      0.00%     77.60% # Class of executed instruction
system.cpu3.op_class::SimdFloatMisc                 0      0.00%     77.60% # Class of executed instruction
system.cpu3.op_class::SimdFloatMult                 0      0.00%     77.60% # Class of executed instruction
system.cpu3.op_class::SimdFloatMultAcc              0      0.00%     77.60% # Class of executed instruction
system.cpu3.op_class::SimdFloatSqrt                 0      0.00%     77.60% # Class of executed instruction
system.cpu3.op_class::MemRead                 5632368     16.73%     94.33% # Class of executed instruction
system.cpu3.op_class::MemWrite                1907781      5.67%    100.00% # Class of executed instruction
system.cpu3.op_class::IprAccess                     0      0.00%    100.00% # Class of executed instruction
system.cpu3.op_class::InstPrefetch                  0      0.00%    100.00% # Class of executed instruction
system.cpu3.op_class::total                  33663322                       # Class of executed instruction
system.iobus.trans_dist::ReadReq                  111                       # Transaction distribution
system.iobus.trans_dist::ReadResp                 111                       # Transaction distribution
system.iobus.trans_dist::WriteReq                3717                       # Transaction distribution
system.iobus.trans_dist::WriteResp               3717                       # Transaction distribution
system.iobus.trans_dist::MessageReq                18                       # Transaction distribution
system.iobus.trans_dist::MessageResp               18                       # Transaction distribution
system.iobus.pkt_count_system.pc.south_bridge.io_apic.int_master::system.ruby.l1_cntrl0.sequencer.pio-slave-port            4                       # Packet count per connected master and slave (bytes)
system.iobus.pkt_count_system.pc.south_bridge.io_apic.int_master::system.ruby.l1_cntrl1.sequencer.pio-slave-port            2                       # Packet count per connected master and slave (bytes)
system.iobus.pkt_count_system.pc.south_bridge.io_apic.int_master::system.ruby.l1_cntrl2.sequencer.pio-slave-port            4                       # Packet count per connected master and slave (bytes)
system.iobus.pkt_count_system.pc.south_bridge.io_apic.int_master::system.ruby.l1_cntrl3.sequencer.pio-slave-port            4                       # Packet count per connected master and slave (bytes)
system.iobus.pkt_count_system.pc.south_bridge.io_apic.int_master::total           14                       # Packet count per connected master and slave (bytes)
system.iobus.pkt_count_system.ruby.l1_cntrl0.sequencer.mem-master-port::system.pc.south_bridge.ide.pio           12                       # Packet count per connected master and slave (bytes)
system.iobus.pkt_count_system.ruby.l1_cntrl0.sequencer.mem-master-port::system.pc.south_bridge.io_apic.pio            8                       # Packet count per connected master and slave (bytes)
system.iobus.pkt_count_system.ruby.l1_cntrl0.sequencer.mem-master-port::system.ruby.l1_cntrl0.sequencer.pio-slave-port         1826                       # Packet count per connected master and slave (bytes)
system.iobus.pkt_count_system.ruby.l1_cntrl0.sequencer.mem-master-port::system.ruby.l1_cntrl1.sequencer.pio-slave-port            6                       # Packet count per connected master and slave (bytes)
system.iobus.pkt_count_system.ruby.l1_cntrl0.sequencer.mem-master-port::system.ruby.l1_cntrl2.sequencer.pio-slave-port            2                       # Packet count per connected master and slave (bytes)
system.iobus.pkt_count_system.ruby.l1_cntrl0.sequencer.mem-master-port::system.ruby.l1_cntrl3.sequencer.pio-slave-port            4                       # Packet count per connected master and slave (bytes)
system.iobus.pkt_count_system.ruby.l1_cntrl0.sequencer.mem-master-port::total         1858                       # Packet count per connected master and slave (bytes)
system.iobus.pkt_count_system.ruby.l1_cntrl1.sequencer.mem-master-port::system.pc.south_bridge.ide.pio           80                       # Packet count per connected master and slave (bytes)
system.iobus.pkt_count_system.ruby.l1_cntrl1.sequencer.mem-master-port::system.pc.com_1.pio            2                       # Packet count per connected master and slave (bytes)
system.iobus.pkt_count_system.ruby.l1_cntrl1.sequencer.mem-master-port::system.ruby.l1_cntrl1.sequencer.pio-slave-port         1814                       # Packet count per connected master and slave (bytes)
system.iobus.pkt_count_system.ruby.l1_cntrl1.sequencer.mem-master-port::system.ruby.l1_cntrl2.sequencer.pio-slave-port            2                       # Packet count per connected master and slave (bytes)
system.iobus.pkt_count_system.ruby.l1_cntrl1.sequencer.mem-master-port::total         1898                       # Packet count per connected master and slave (bytes)
system.iobus.pkt_count_system.ruby.l1_cntrl2.sequencer.mem-master-port::system.pc.south_bridge.ide.pio           46                       # Packet count per connected master and slave (bytes)
system.iobus.pkt_count_system.ruby.l1_cntrl2.sequencer.mem-master-port::system.pc.south_bridge.io_apic.pio            6                       # Packet count per connected master and slave (bytes)
system.iobus.pkt_count_system.ruby.l1_cntrl2.sequencer.mem-master-port::system.pc.com_1.pio          174                       # Packet count per connected master and slave (bytes)
system.iobus.pkt_count_system.ruby.l1_cntrl2.sequencer.mem-master-port::system.ruby.l1_cntrl1.sequencer.pio-slave-port            2                       # Packet count per connected master and slave (bytes)
system.iobus.pkt_count_system.ruby.l1_cntrl2.sequencer.mem-master-port::system.ruby.l1_cntrl2.sequencer.pio-slave-port         1816                       # Packet count per connected master and slave (bytes)
system.iobus.pkt_count_system.ruby.l1_cntrl2.sequencer.mem-master-port::system.ruby.l1_cntrl3.sequencer.pio-slave-port            2                       # Packet count per connected master and slave (bytes)
system.iobus.pkt_count_system.ruby.l1_cntrl2.sequencer.mem-master-port::total         2046                       # Packet count per connected master and slave (bytes)
system.iobus.pkt_count_system.ruby.l1_cntrl3.sequencer.mem-master-port::system.pc.south_bridge.ide.pio           46                       # Packet count per connected master and slave (bytes)
system.iobus.pkt_count_system.ruby.l1_cntrl3.sequencer.mem-master-port::system.pc.south_bridge.io_apic.pio            8                       # Packet count per connected master and slave (bytes)
system.iobus.pkt_count_system.ruby.l1_cntrl3.sequencer.mem-master-port::system.ruby.l1_cntrl0.sequencer.pio-slave-port            2                       # Packet count per connected master and slave (bytes)
system.iobus.pkt_count_system.ruby.l1_cntrl3.sequencer.mem-master-port::system.ruby.l1_cntrl1.sequencer.pio-slave-port            2                       # Packet count per connected master and slave (bytes)
system.iobus.pkt_count_system.ruby.l1_cntrl3.sequencer.mem-master-port::system.ruby.l1_cntrl3.sequencer.pio-slave-port         1818                       # Packet count per connected master and slave (bytes)
system.iobus.pkt_count_system.ruby.l1_cntrl3.sequencer.mem-master-port::total         1876                       # Packet count per connected master and slave (bytes)
system.iobus.pkt_count::total                    7692                       # Packet count per connected master and slave (bytes)
system.iobus.pkt_size_system.pc.south_bridge.io_apic.int_master::system.ruby.l1_cntrl0.sequencer.pio-slave-port            8                       # Cumulative packet size per connected master and slave (bytes)
system.iobus.pkt_size_system.pc.south_bridge.io_apic.int_master::system.ruby.l1_cntrl1.sequencer.pio-slave-port            4                       # Cumulative packet size per connected master and slave (bytes)
system.iobus.pkt_size_system.pc.south_bridge.io_apic.int_master::system.ruby.l1_cntrl2.sequencer.pio-slave-port            8                       # Cumulative packet size per connected master and slave (bytes)
system.iobus.pkt_size_system.pc.south_bridge.io_apic.int_master::system.ruby.l1_cntrl3.sequencer.pio-slave-port            8                       # Cumulative packet size per connected master and slave (bytes)
system.iobus.pkt_size_system.pc.south_bridge.io_apic.int_master::total           28                       # Cumulative packet size per connected master and slave (bytes)
system.iobus.pkt_size_system.ruby.l1_cntrl0.sequencer.mem-master-port::system.pc.south_bridge.ide.pio            6                       # Cumulative packet size per connected master and slave (bytes)
system.iobus.pkt_size_system.ruby.l1_cntrl0.sequencer.mem-master-port::system.pc.south_bridge.io_apic.pio           16                       # Cumulative packet size per connected master and slave (bytes)
system.iobus.pkt_size_system.ruby.l1_cntrl0.sequencer.mem-master-port::system.ruby.l1_cntrl0.sequencer.pio-slave-port         3652                       # Cumulative packet size per connected master and slave (bytes)
system.iobus.pkt_size_system.ruby.l1_cntrl0.sequencer.mem-master-port::system.ruby.l1_cntrl1.sequencer.pio-slave-port           12                       # Cumulative packet size per connected master and slave (bytes)
system.iobus.pkt_size_system.ruby.l1_cntrl0.sequencer.mem-master-port::system.ruby.l1_cntrl2.sequencer.pio-slave-port            4                       # Cumulative packet size per connected master and slave (bytes)
system.iobus.pkt_size_system.ruby.l1_cntrl0.sequencer.mem-master-port::system.ruby.l1_cntrl3.sequencer.pio-slave-port            8                       # Cumulative packet size per connected master and slave (bytes)
system.iobus.pkt_size_system.ruby.l1_cntrl0.sequencer.mem-master-port::total         3698                       # Cumulative packet size per connected master and slave (bytes)
system.iobus.pkt_size_system.ruby.l1_cntrl1.sequencer.mem-master-port::system.pc.south_bridge.ide.pio           46                       # Cumulative packet size per connected master and slave (bytes)
system.iobus.pkt_size_system.ruby.l1_cntrl1.sequencer.mem-master-port::system.pc.com_1.pio            1                       # Cumulative packet size per connected master and slave (bytes)
system.iobus.pkt_size_system.ruby.l1_cntrl1.sequencer.mem-master-port::system.ruby.l1_cntrl1.sequencer.pio-slave-port         3628                       # Cumulative packet size per connected master and slave (bytes)
system.iobus.pkt_size_system.ruby.l1_cntrl1.sequencer.mem-master-port::system.ruby.l1_cntrl2.sequencer.pio-slave-port            4                       # Cumulative packet size per connected master and slave (bytes)
system.iobus.pkt_size_system.ruby.l1_cntrl1.sequencer.mem-master-port::total         3679                       # Cumulative packet size per connected master and slave (bytes)
system.iobus.pkt_size_system.ruby.l1_cntrl2.sequencer.mem-master-port::system.pc.south_bridge.ide.pio           26                       # Cumulative packet size per connected master and slave (bytes)
system.iobus.pkt_size_system.ruby.l1_cntrl2.sequencer.mem-master-port::system.pc.south_bridge.io_apic.pio           12                       # Cumulative packet size per connected master and slave (bytes)
system.iobus.pkt_size_system.ruby.l1_cntrl2.sequencer.mem-master-port::system.pc.com_1.pio           87                       # Cumulative packet size per connected master and slave (bytes)
system.iobus.pkt_size_system.ruby.l1_cntrl2.sequencer.mem-master-port::system.ruby.l1_cntrl1.sequencer.pio-slave-port            4                       # Cumulative packet size per connected master and slave (bytes)
system.iobus.pkt_size_system.ruby.l1_cntrl2.sequencer.mem-master-port::system.ruby.l1_cntrl2.sequencer.pio-slave-port         3632                       # Cumulative packet size per connected master and slave (bytes)
system.iobus.pkt_size_system.ruby.l1_cntrl2.sequencer.mem-master-port::system.ruby.l1_cntrl3.sequencer.pio-slave-port            4                       # Cumulative packet size per connected master and slave (bytes)
system.iobus.pkt_size_system.ruby.l1_cntrl2.sequencer.mem-master-port::total         3765                       # Cumulative packet size per connected master and slave (bytes)
system.iobus.pkt_size_system.ruby.l1_cntrl3.sequencer.mem-master-port::system.pc.south_bridge.ide.pio           26                       # Cumulative packet size per connected master and slave (bytes)
system.iobus.pkt_size_system.ruby.l1_cntrl3.sequencer.mem-master-port::system.pc.south_bridge.io_apic.pio           16                       # Cumulative packet size per connected master and slave (bytes)
system.iobus.pkt_size_system.ruby.l1_cntrl3.sequencer.mem-master-port::system.ruby.l1_cntrl0.sequencer.pio-slave-port            4                       # Cumulative packet size per connected master and slave (bytes)
system.iobus.pkt_size_system.ruby.l1_cntrl3.sequencer.mem-master-port::system.ruby.l1_cntrl1.sequencer.pio-slave-port            4                       # Cumulative packet size per connected master and slave (bytes)
system.iobus.pkt_size_system.ruby.l1_cntrl3.sequencer.mem-master-port::system.ruby.l1_cntrl3.sequencer.pio-slave-port         3636                       # Cumulative packet size per connected master and slave (bytes)
system.iobus.pkt_size_system.ruby.l1_cntrl3.sequencer.mem-master-port::total         3686                       # Cumulative packet size per connected master and slave (bytes)
system.iobus.pkt_size::total                    14856                       # Cumulative packet size per connected master and slave (bytes)
system.iobus.reqLayer2.occupancy               163000                       # Layer occupancy (ticks)
system.iobus.reqLayer2.utilization                0.0                       # Layer utilization (%)
system.iobus.reqLayer8.occupancy                19997                       # Layer occupancy (ticks)
system.iobus.reqLayer8.utilization                0.0                       # Layer utilization (%)
system.iobus.reqLayer12.occupancy              113000                       # Layer occupancy (ticks)
system.iobus.reqLayer12.utilization               0.0                       # Layer utilization (%)
system.iobus.reqLayer17.occupancy             2186479                       # Layer occupancy (ticks)
system.iobus.reqLayer17.utilization               0.0                       # Layer utilization (%)
system.iobus.reqLayer18.occupancy             2279498                       # Layer occupancy (ticks)
system.iobus.reqLayer18.utilization               0.0                       # Layer utilization (%)
system.iobus.reqLayer19.occupancy             2275497                       # Layer occupancy (ticks)
system.iobus.reqLayer19.utilization               0.0                       # Layer utilization (%)
system.iobus.reqLayer20.occupancy             2278493                       # Layer occupancy (ticks)
system.iobus.reqLayer20.utilization               0.0                       # Layer utilization (%)
system.iobus.respLayer0.occupancy                9996                       # Layer occupancy (ticks)
system.iobus.respLayer0.utilization               0.0                       # Layer utilization (%)
system.iobus.respLayer2.occupancy             1395000                       # Layer occupancy (ticks)
system.iobus.respLayer2.utilization               0.0                       # Layer utilization (%)
system.iobus.respLayer4.occupancy             1415500                       # Layer occupancy (ticks)
system.iobus.respLayer4.utilization               0.0                       # Layer utilization (%)
system.iobus.respLayer6.occupancy             1553000                       # Layer occupancy (ticks)
system.iobus.respLayer6.utilization               0.0                       # Layer utilization (%)
system.iobus.respLayer8.occupancy             1404500                       # Layer occupancy (ticks)
system.iobus.respLayer8.utilization               0.0                       # Layer utilization (%)
system.pc.south_bridge.ide.disks.dma_read_full_pages            1                       # Number of full page size DMA reads (not PRD).
system.pc.south_bridge.ide.disks.dma_read_bytes         4096                       # Number of bytes transfered via DMA reads (not PRD).
system.pc.south_bridge.ide.disks.dma_read_txs            1                       # Number of DMA read transactions (not PRD).
system.pc.south_bridge.ide.disks.dma_write_full_pages           45                       # Number of full page size DMA writes.
system.pc.south_bridge.ide.disks.dma_write_bytes       184320                       # Number of bytes transfered via DMA writes.
system.pc.south_bridge.ide.disks.dma_write_txs           45                       # Number of DMA write transactions.
system.ruby.clk_domain.clock                      500                       # Clock period in ticks
system.ruby.outstanding_req_hist_seqr::bucket_size            1                      
system.ruby.outstanding_req_hist_seqr::max_bucket            9                      
system.ruby.outstanding_req_hist_seqr::samples   3589034153                      
system.ruby.outstanding_req_hist_seqr::mean     1.000000                      
system.ruby.outstanding_req_hist_seqr::gmean     1.000000                      
system.ruby.outstanding_req_hist_seqr::stdev     0.000250                      
system.ruby.outstanding_req_hist_seqr    |           0      0.00%      0.00% |  3589033928    100.00%    100.00% |         225      0.00%    100.00% |           0      0.00%    100.00% |           0      0.00%    100.00% |           0      0.00%    100.00% |           0      0.00%    100.00% |           0      0.00%    100.00% |           0      0.00%    100.00% |           0      0.00%    100.00%
system.ruby.outstanding_req_hist_seqr::total   3589034153                      
system.ruby.latency_hist_seqr::bucket_size          128                      
system.ruby.latency_hist_seqr::max_bucket         1279                      
system.ruby.latency_hist_seqr::samples     3589034153                      
system.ruby.latency_hist_seqr::mean          1.011350                      
system.ruby.latency_hist_seqr::gmean         1.002500                      
system.ruby.latency_hist_seqr::stdev         0.450206                      
system.ruby.latency_hist_seqr            |  3589032688    100.00%    100.00% |        1228      0.00%    100.00% |          25      0.00%    100.00% |          34      0.00%    100.00% |         137      0.00%    100.00% |          41      0.00%    100.00% |           0      0.00%    100.00% |           0      0.00%    100.00% |           0      0.00%    100.00% |           0      0.00%    100.00%
system.ruby.latency_hist_seqr::total       3589034153                      
system.ruby.hit_latency_hist_seqr::bucket_size            2                      
system.ruby.hit_latency_hist_seqr::max_bucket           19                      
system.ruby.hit_latency_hist_seqr::samples   3588921280                      
system.ruby.hit_latency_hist_seqr::mean      1.009927                      
system.ruby.hit_latency_hist_seqr::gmean     1.002383                      
system.ruby.hit_latency_hist_seqr::stdev     0.314908                      
system.ruby.hit_latency_hist_seqr        |  3585358724     99.90%     99.90% |           0      0.00%     99.90% |           0      0.00%     99.90% |           0      0.00%     99.90% |           0      0.00%     99.90% |     3562556      0.10%    100.00% |           0      0.00%    100.00% |           0      0.00%    100.00% |           0      0.00%    100.00% |           0      0.00%    100.00%
system.ruby.hit_latency_hist_seqr::total   3588921280                      
system.ruby.miss_latency_hist_seqr::bucket_size          128                      
system.ruby.miss_latency_hist_seqr::max_bucket         1279                      
system.ruby.miss_latency_hist_seqr::samples       112873                      
system.ruby.miss_latency_hist_seqr::mean    46.260036                      
[...]
system.ruby.L1Cache_Controller.O.Other_GETS::total        35006                      
system.ruby.L1Cache_Controller.O.Merged_GETS |           0      0.00%      0.00% |           1    100.00%    100.00% |           0      0.00%    100.00% |           0      0.00%    100.00%
system.ruby.L1Cache_Controller.O.Merged_GETS::total            1                      
system.ruby.L1Cache_Controller.M.Load    |    49658938     96.62%     96.62% |      127515      0.25%     96.86% |      136711      0.27%     97.13% |     1475380      2.87%    100.00%
system.ruby.L1Cache_Controller.M.Load::total     51398544                      
system.ruby.L1Cache_Controller.M.Ifetch  |    45719546     67.18%     67.18% |     1313833      1.93%     69.11% |      166859      0.25%     69.36% |    20851875     30.64%    100.00%
system.ruby.L1Cache_Controller.M.Ifetch::total     68052113                      
system.ruby.L1Cache_Controller.M.Store   |        6277     40.01%     40.01% |        2781     17.72%     57.73% |        3701     23.59%     81.32% |        2931     18.68%    100.00%
system.ruby.L1Cache_Controller.M.Store::total        15690                      
system.ruby.L1Cache_Controller.M.L2_Replacement |         870     66.77%     66.77% |          98      7.52%     74.29% |         238     18.27%     92.56% |          97      7.44%    100.00%
system.ruby.L1Cache_Controller.M.L2_Replacement::total         1303                      
system.ruby.L1Cache_Controller.M.L1_to_L2 |      101486     71.96%     71.96% |        7369      5.23%     77.19% |        7963      5.65%     82.84% |       24205     17.16%    100.00%
system.ruby.L1Cache_Controller.M.L1_to_L2::total       141023                      
system.ruby.L1Cache_Controller.M.Trigger_L2_to_L1D |       76858     83.58%     83.58% |        1815      1.97%     85.56% |        2403      2.61%     88.17% |       10877     11.83%    100.00%
system.ruby.L1Cache_Controller.M.Trigger_L2_to_L1D::total        91953                      
system.ruby.L1Cache_Controller.M.Trigger_L2_to_L1I |       20943     71.34%     71.34% |        1153      3.93%     75.26% |         907      3.09%     78.35% |        6355     21.65%    100.00%
system.ruby.L1Cache_Controller.M.Trigger_L2_to_L1I::total        29358                      
system.ruby.L1Cache_Controller.M.Other_GETX |         871     40.78%     40.78% |         631     29.54%     70.32% |         434     20.32%     90.64% |         200      9.36%    100.00%
system.ruby.L1Cache_Controller.M.Other_GETX::total         2136                      
system.ruby.L1Cache_Controller.M.Other_GETS |         954      3.21%      3.21% |        7395     24.89%     28.10% |        6446     21.70%     49.80% |       14914     50.20%    100.00%
system.ruby.L1Cache_Controller.M.Other_GETS::total        29709                      
system.ruby.L1Cache_Controller.M.Merged_GETS |           1      1.75%      1.75% |           5      8.77%     10.53% |           3      5.26%     15.79% |          48     84.21%    100.00%
system.ruby.L1Cache_Controller.M.Merged_GETS::total           57                      
system.ruby.L1Cache_Controller.MM.Load   |   357895385     98.49%     98.49% |      907773      0.25%     98.74% |      896869      0.25%     98.99% |     3671900      1.01%    100.00%
system.ruby.L1Cache_Controller.MM.Load::total    363371927                      
system.ruby.L1Cache_Controller.MM.Store  |   171700898     97.61%     97.61% |      994550      0.57%     98.18% |      954910      0.54%     98.72% |     2247840      1.28%    100.00%
system.ruby.L1Cache_Controller.MM.Store::total    175898198                      
system.ruby.L1Cache_Controller.MM.L2_Replacement |        5714     80.16%     80.16% |         237      3.32%     83.49% |         865     12.14%     95.62% |         312      4.38%    100.00%
system.ruby.L1Cache_Controller.MM.L2_Replacement::total         7128                      
system.ruby.L1Cache_Controller.MM.L1_to_L2 |     1295620     94.69%     94.69% |       20201      1.48%     96.17% |       25142      1.84%     98.01% |       27260      1.99%    100.00%
system.ruby.L1Cache_Controller.MM.L1_to_L2::total      1368223                      
system.ruby.L1Cache_Controller.MM.Trigger_L2_to_L1D |     1270162     96.80%     96.80% |       10097      0.77%     97.57% |       11538      0.88%     98.45% |       20379      1.55%    100.00%
system.ruby.L1Cache_Controller.MM.Trigger_L2_to_L1D::total      1312176                      
system.ruby.L1Cache_Controller.MM.Other_GETX |        3643     23.16%     23.16% |        4562     29.00%     52.16% |        2546     16.18%     68.34% |        4980     31.66%    100.00%
system.ruby.L1Cache_Controller.MM.Other_GETX::total        15731                      
system.ruby.L1Cache_Controller.MM.Other_GETS |       10804     32.18%     32.18% |        9143     27.23%     59.41% |        6324     18.84%     78.25% |        7302     21.75%    100.00%
system.ruby.L1Cache_Controller.MM.Other_GETS::total        33573                      
system.ruby.L1Cache_Controller.MM.Merged_GETS |         196     29.79%     29.79% |         199     30.24%     60.03% |         197     29.94%     89.97% |          66     10.03%    100.00%
system.ruby.L1Cache_Controller.MM.Merged_GETS::total          658                      
system.ruby.L1Cache_Controller.SR.Load   |      988137     98.19%     98.19% |        3807      0.38%     98.56% |        8237      0.82%     99.38% |        6216      0.62%    100.00%
system.ruby.L1Cache_Controller.SR.Load::total      1006397                      
system.ruby.L1Cache_Controller.SR.Ifetch |     1084470     92.41%     92.41% |       13230      1.13%     93.54% |       44782      3.82%     97.36% |       31035      2.64%    100.00%
system.ruby.L1Cache_Controller.SR.Ifetch::total      1173517                      
system.ruby.L1Cache_Controller.SR.Store  |         130     28.89%     28.89% |         175     38.89%     67.78% |         131     29.11%     96.89% |          14      3.11%    100.00%
system.ruby.L1Cache_Controller.SR.Store::total          450                      
system.ruby.L1Cache_Controller.OR.Load   |       10302     60.12%     60.12% |        3103     18.11%     78.22% |        1725     10.07%     88.29% |        2007     11.71%    100.00%
system.ruby.L1Cache_Controller.OR.Load::total        17137                      
system.ruby.L1Cache_Controller.OR.Ifetch |        4634     11.13%     11.13% |       27788     66.73%     77.85% |         807      1.94%     79.79% |        8416     20.21%    100.00%
system.ruby.L1Cache_Controller.OR.Ifetch::total        41645                      
system.ruby.L1Cache_Controller.OR.Store  |           7     13.46%     13.46% |          20     38.46%     51.92% |           8     15.38%     67.31% |          17     32.69%    100.00%
system.ruby.L1Cache_Controller.OR.Store::total           52                      
system.ruby.L1Cache_Controller.MR.Load   |       76299     85.05%     85.05% |        1440      1.61%     86.65% |        1208      1.35%     88.00% |       10767     12.00%    100.00%
system.ruby.L1Cache_Controller.MR.Load::total        89714                      
system.ruby.L1Cache_Controller.MR.Ifetch |       20943     71.34%     71.34% |        1153      3.93%     75.26% |         907      3.09%     78.35% |        6355     21.65%    100.00%
system.ruby.L1Cache_Controller.MR.Ifetch::total        29358                      
system.ruby.L1Cache_Controller.MR.Store  |         559     24.97%     24.97% |         375     16.75%     41.72% |        1195     53.37%     95.09% |         110      4.91%    100.00%
system.ruby.L1Cache_Controller.MR.Store::total         2239                      
system.ruby.L1Cache_Controller.MMR.Load  |      337298     95.44%     95.44% |        5022      1.42%     96.86% |        5948      1.68%     98.54% |        5155      1.46%    100.00%
system.ruby.L1Cache_Controller.MMR.Load::total       353423                      
system.ruby.L1Cache_Controller.MMR.Store |      932864     97.30%     97.30% |        5075      0.53%     97.83% |        5590      0.58%     98.41% |       15224      1.59%    100.00%
system.ruby.L1Cache_Controller.MMR.Store::total       958753                      
system.ruby.L1Cache_Controller.IM.Ack    |       42606     46.04%     46.04% |       19330     20.89%     66.93% |       17287     18.68%     85.61% |       13312     14.39%    100.00%
system.ruby.L1Cache_Controller.IM.Ack::total        92535                      
system.ruby.L1Cache_Controller.IM.Data   |        3032     35.65%     35.65% |        1855     21.81%     57.46% |        1831     21.53%     78.99% |        1787     21.01%    100.00%
system.ruby.L1Cache_Controller.IM.Data::total         8505                      
system.ruby.L1Cache_Controller.IM.Exclusive_Data |       16724     42.35%     42.35% |        7844     19.87%     62.22% |        9074     22.98%     85.20% |        5844     14.80%    100.00%
system.ruby.L1Cache_Controller.IM.Exclusive_Data::total        39486                      
system.ruby.L1Cache_Controller.SM.Other_GETX |           0      0.00%      0.00% |           0      0.00%      0.00% |           1    100.00%    100.00% |           0      0.00%    100.00%
system.ruby.L1Cache_Controller.SM.Other_GETX::total            1                      
system.ruby.L1Cache_Controller.SM.Ack    |        8795     50.51%     50.51% |        1826     10.49%     61.00% |        3375     19.38%     80.38% |        3416     19.62%    100.00%
system.ruby.L1Cache_Controller.SM.Ack::total        17412                      
system.ruby.L1Cache_Controller.SM.Data   |        5812     43.22%     43.22% |        2354     17.50%     60.72% |        2542     18.90%     79.62% |        2741     20.38%    100.00%
system.ruby.L1Cache_Controller.SM.Data::total        13449                      
system.ruby.L1Cache_Controller.OM.Ack    |         270     26.39%     26.39% |         177     17.30%     43.70% |         144     14.08%     57.77% |         432     42.23%    100.00%
system.ruby.L1Cache_Controller.OM.Ack::total         1023                      
system.ruby.L1Cache_Controller.OM.All_acks_no_sharers |          90     26.39%     26.39% |          59     17.30%     43.70% |          48     14.08%     57.77% |         144     42.23%    100.00%
system.ruby.L1Cache_Controller.OM.All_acks_no_sharers::total          341                      
system.ruby.L1Cache_Controller.ISM.Ack   |        3518     20.91%     20.91% |        4812     28.60%     49.51% |        4635     27.55%     77.06% |        3859     22.94%    100.00%
system.ruby.L1Cache_Controller.ISM.Ack::total        16824                      
system.ruby.L1Cache_Controller.ISM.All_acks_no_sharers |        8844     40.28%     40.28% |        4209     19.17%     59.46% |        4373     19.92%     79.38% |        4528     20.62%    100.00%
system.ruby.L1Cache_Controller.ISM.All_acks_no_sharers::total        21954                      
system.ruby.L1Cache_Controller.M_W.Load  |         112     32.46%     32.46% |         120     34.78%     67.25% |          82     23.77%     91.01% |          31      8.99%    100.00%
system.ruby.L1Cache_Controller.M_W.Load::total          345                      
system.ruby.L1Cache_Controller.M_W.Store |          21     15.79%     15.79% |          72     54.14%     69.92% |          17     12.78%     82.71% |          23     17.29%    100.00%
system.ruby.L1Cache_Controller.M_W.Store::total          133                      
system.ruby.L1Cache_Controller.M_W.Ack   |        3887     11.97%     11.97% |        3810     11.73%     23.70% |        8523     26.25%     49.95% |       16254     50.05%    100.00%
system.ruby.L1Cache_Controller.M_W.Ack::total        32474                      
system.ruby.L1Cache_Controller.M_W.All_acks_no_sharers |       10991     19.84%     19.84% |       11375     20.54%     40.38% |       13740     24.81%     65.19% |       19284     34.81%    100.00%
system.ruby.L1Cache_Controller.M_W.All_acks_no_sharers::total        55390                      
system.ruby.L1Cache_Controller.MM_W.Load |           0      0.00%      0.00% |           0      0.00%      0.00% |           1    100.00%    100.00% |           0      0.00%    100.00%
system.ruby.L1Cache_Controller.MM_W.Load::total            1                      
system.ruby.L1Cache_Controller.MM_W.Store |        1450     22.40%     22.40% |        1497     23.13%     45.53% |        1779     27.48%     73.01% |        1747     26.99%    100.00%
system.ruby.L1Cache_Controller.MM_W.Store::total         6473                      
system.ruby.L1Cache_Controller.MM_W.Ack  |        6318     35.16%     35.16% |        2995     16.67%     51.83% |        5626     31.31%     83.14% |        3030     16.86%    100.00%
system.ruby.L1Cache_Controller.MM_W.Ack::total        17969                      
system.ruby.L1Cache_Controller.MM_W.All_acks_no_sharers |       16745     42.27%     42.27% |        7916     19.98%     62.25% |        9091     22.95%     85.19% |        5867     14.81%    100.00%
system.ruby.L1Cache_Controller.MM_W.All_acks_no_sharers::total        39619                      
system.ruby.L1Cache_Controller.IS.Other_GETX |           2    100.00%    100.00% |           0      0.00%    100.00% |           0      0.00%    100.00% |           0      0.00%    100.00%
system.ruby.L1Cache_Controller.IS.Other_GETX::total            2                      
system.ruby.L1Cache_Controller.IS.Other_GETS |           0      0.00%      0.00% |           0      0.00%      0.00% |           1     33.33%     33.33% |           2     66.67%    100.00%
system.ruby.L1Cache_Controller.IS.Other_GETS::total            3                      
system.ruby.L1Cache_Controller.IS.Ack    |       31274     20.54%     20.54% |       41309     27.13%     47.66% |       41518     27.26%     74.93% |       38181     25.07%    100.00%
system.ruby.L1Cache_Controller.IS.Ack::total       152282                      
system.ruby.L1Cache_Controller.IS.Shared_Ack |       10926     47.29%     47.29% |        1370      5.93%     53.22% |       10048     43.49%     96.72% |         758      3.28%    100.00%
system.ruby.L1Cache_Controller.IS.Shared_Ack::total        23102                      
system.ruby.L1Cache_Controller.IS.Data   |         177     48.10%     48.10% |          36      9.78%     57.88% |         138     37.50%     95.38% |          17      4.62%    100.00%
system.ruby.L1Cache_Controller.IS.Data::total          368                      
system.ruby.L1Cache_Controller.IS.Shared_Data |       16793     25.66%     25.66% |       16535     25.27%     50.93% |       22317     34.11%     85.04% |        9788     14.96%    100.00%
system.ruby.L1Cache_Controller.IS.Shared_Data::total        65433                      
system.ruby.L1Cache_Controller.IS.Exclusive_Data |       11012     19.83%     19.83% |       11447     20.62%     40.45% |       13757     24.78%     65.23% |       19307     34.77%    100.00%
system.ruby.L1Cache_Controller.IS.Exclusive_Data::total        55523                      
system.ruby.L1Cache_Controller.SS.Load   |         187     61.92%     61.92% |          27      8.94%     70.86% |          77     25.50%     96.36% |          11      3.64%    100.00%
system.ruby.L1Cache_Controller.SS.Load::total          302                      
system.ruby.L1Cache_Controller.SS.Ifetch |        4597     45.49%     45.49% |        1185     11.73%     57.22% |        3183     31.50%     88.72% |        1140     11.28%    100.00%
system.ruby.L1Cache_Controller.SS.Ifetch::total        10105                      
system.ruby.L1Cache_Controller.SS.Store  |           2      6.06%      6.06% |           3      9.09%     15.15% |           0      0.00%     15.15% |          28     84.85%    100.00%
system.ruby.L1Cache_Controller.SS.Store::total           33                      
system.ruby.L1Cache_Controller.SS.Ack    |        4457     14.30%     14.30% |       11548     37.04%     51.34% |       11125     35.69%     87.03% |        4043     12.97%    100.00%
system.ruby.L1Cache_Controller.SS.Ack::total        31173                      
system.ruby.L1Cache_Controller.SS.Shared_Ack |       12647     51.89%     51.89% |        2726     11.18%     63.07% |        6062     24.87%     87.94% |        2940     12.06%    100.00%
system.ruby.L1Cache_Controller.SS.Shared_Ack::total        24375                      
system.ruby.L1Cache_Controller.SS.All_acks |       16963     25.78%     25.78% |       16570     25.19%     50.97% |       22454     34.13%     85.10% |        9805     14.90%    100.00%
system.ruby.L1Cache_Controller.SS.All_acks::total        65792                      
system.ruby.L1Cache_Controller.SS.All_acks_no_sharers |           7     77.78%     77.78% |           1     11.11%     88.89% |           1     11.11%    100.00% |           0      0.00%    100.00%
system.ruby.L1Cache_Controller.SS.All_acks_no_sharers::total            9                      
system.ruby.L1Cache_Controller.OI.Load   |           0      0.00%      0.00% |           0      0.00%      0.00% |           2    100.00%    100.00% |           0      0.00%    100.00%
system.ruby.L1Cache_Controller.OI.Load::total            2                      
system.ruby.L1Cache_Controller.OI.Ifetch |           0      0.00%      0.00% |           0      0.00%      0.00% |           0      0.00%      0.00% |           1    100.00%    100.00%
system.ruby.L1Cache_Controller.OI.Ifetch::total            1                      
system.ruby.L1Cache_Controller.OI.Writeback_Ack |         205     22.38%     22.38% |         383     41.81%     64.19% |         204     22.27%     86.46% |         124     13.54%    100.00%
system.ruby.L1Cache_Controller.OI.Writeback_Ack::total          916                      
system.ruby.L1Cache_Controller.MI.Load   |          25     60.98%     60.98% |           6     14.63%     75.61% |           6     14.63%     90.24% |           4      9.76%    100.00%
system.ruby.L1Cache_Controller.MI.Load::total           41                      
system.ruby.L1Cache_Controller.MI.Store  |          14     41.18%     41.18% |           4     11.76%     52.94% |          11     32.35%     85.29% |           5     14.71%    100.00%
system.ruby.L1Cache_Controller.MI.Store::total           34                      
system.ruby.L1Cache_Controller.MI.Writeback_Ack |        6584     78.09%     78.09% |         335      3.97%     82.07% |        1103     13.08%     95.15% |         409      4.85%    100.00%
system.ruby.L1Cache_Controller.MI.Writeback_Ack::total         8431                      
system.ruby.L1Cache_Controller.ST.Complete_L2_to_L1 |     2072737     95.06%     95.06% |       17212      0.79%     95.85% |       53150      2.44%     98.29% |       37265      1.71%    100.00%
system.ruby.L1Cache_Controller.ST.Complete_L2_to_L1::total      2180364                      
system.ruby.L1Cache_Controller.OT.Complete_L2_to_L1 |       14943     25.40%     25.40% |       30911     52.54%     77.94% |        2540      4.32%     82.26% |       10440     17.74%    100.00%
system.ruby.L1Cache_Controller.OT.Complete_L2_to_L1::total        58834                      
system.ruby.L1Cache_Controller.MT.Complete_L2_to_L1 |       97801     80.62%     80.62% |        2968      2.45%     83.07% |        3310      2.73%     85.80% |       17232     14.20%    100.00%
system.ruby.L1Cache_Controller.MT.Complete_L2_to_L1::total       121311                      
system.ruby.L1Cache_Controller.MMT.Complete_L2_to_L1 |     1270162     96.80%     96.80% |       10097      0.77%     97.57% |       11538      0.88%     98.45% |       20379      1.55%    100.00%
system.ruby.L1Cache_Controller.MMT.Complete_L2_to_L1::total      1312176                      

---------- End Simulation Statistics   ----------
