
---------- Begin Simulation Statistics ----------
sim_seconds                                  0.754383                       # Number of seconds simulated
sim_ticks                                754382659500                       # Number of ticks simulated
final_tick                               54390821683501                       # Number of ticks from beginning of simulation (restored from checkpoints and never reset)
sim_freq                                 1000000000000                       # Frequency of simulated ticks
host_inst_rate                                 102536                       # Simulator instruction rate (inst/s)
host_op_rate                                   169781                       # Simulator op (including micro ops) rate (op/s)
host_tick_rate                              276554294                       # Simulator tick rate (ticks/s)
host_mem_usage                                1792180                       # Number of bytes of host memory used
host_seconds                                  2727.79                       # Real time elapsed on the host
sim_insts                                   279695687                       # Number of instructions simulated
sim_ops                                     463127554                       # Number of ops (including micro ops) simulated
system.voltage_domain.voltage                       1                       # Voltage in Volts
system.clk_domain.clock                          1000                       # Clock period in ticks
system.mem_ctrls.bytes_read::ruby.dir_cntrl0    422967552                       # Number of bytes read from this memory
system.mem_ctrls.bytes_read::total          422967552                       # Number of bytes read from this memory
system.mem_ctrls.bytes_written::ruby.dir_cntrl0    247757312                       # Number of bytes written to this memory
system.mem_ctrls.bytes_written::total       247757312                       # Number of bytes written to this memory
system.mem_ctrls.num_reads::ruby.dir_cntrl0      3304434                       # Number of read requests responded to by this memory
system.mem_ctrls.num_reads::total             3304434                       # Number of read requests responded to by this memory
system.mem_ctrls.num_writes::ruby.dir_cntrl0      1935604                       # Number of write requests responded to by this memory
system.mem_ctrls.num_writes::total            1935604                       # Number of write requests responded to by this memory
system.mem_ctrls.bw_read::ruby.dir_cntrl0    560680374                       # Total read bandwidth from this memory (bytes/s)
system.mem_ctrls.bw_read::total             560680374                       # Total read bandwidth from this memory (bytes/s)
system.mem_ctrls.bw_write::ruby.dir_cntrl0    328423922                       # Write bandwidth from this memory (bytes/s)
system.mem_ctrls.bw_write::total            328423922                       # Write bandwidth from this memory (bytes/s)
system.mem_ctrls.bw_total::ruby.dir_cntrl0    889104297                       # Total bandwidth to/from this memory (bytes/s)
system.mem_ctrls.bw_total::total            889104297                       # Total bandwidth to/from this memory (bytes/s)
system.mem_ctrls.readReqs                     3304434                       # Number of read requests accepted
system.mem_ctrls.writeReqs                    1935604                       # Number of write requests accepted
system.mem_ctrls.readBursts                   6608868                       # Number of DRAM read bursts, including those serviced by the write queue
system.mem_ctrls.writeBursts                  3871208                       # Number of DRAM write bursts, including those merged in the write queue
system.mem_ctrls.bytesReadDRAM              422514432                       # Total number of bytes read from DRAM
system.mem_ctrls.bytesReadWrQ                  453120                       # Total number of bytes read from write queue
system.mem_ctrls.bytesWritten               247756416                       # Total number of bytes written to DRAM
system.mem_ctrls.bytesReadSys               422967552                       # Total read bytes from the system interface side
system.mem_ctrls.bytesWrittenSys            247757312                       # Total written bytes from the system interface side
system.mem_ctrls.servicedByWrQ                   7080                       # Number of DRAM read bursts serviced by the write queue
system.mem_ctrls.mergedWrBursts                     4                       # Number of DRAM write bursts merged with an existing one
system.mem_ctrls.neitherReadNorWriteReqs            0                       # Number of requests that are neither read nor write
system.mem_ctrls.perBankRdBursts::0            401029                       # Per bank write bursts
system.mem_ctrls.perBankRdBursts::1            446388                       # Per bank write bursts
system.mem_ctrls.perBankRdBursts::2            429618                       # Per bank write bursts
system.mem_ctrls.perBankRdBursts::3            418793                       # Per bank write bursts
system.mem_ctrls.perBankRdBursts::4            428913                       # Per bank write bursts
system.mem_ctrls.perBankRdBursts::5            426161                       # Per bank write bursts
system.mem_ctrls.perBankRdBursts::6            399857                       # Per bank write bursts
system.mem_ctrls.perBankRdBursts::7            412292                       # Per bank write bursts
system.mem_ctrls.perBankRdBursts::8            439007                       # Per bank write bursts
system.mem_ctrls.perBankRdBursts::9            398684                       # Per bank write bursts
system.mem_ctrls.perBankRdBursts::10           394606                       # Per bank write bursts
system.mem_ctrls.perBankRdBursts::11           398896                       # Per bank write bursts
system.mem_ctrls.perBankRdBursts::12           400291                       # Per bank write bursts
system.mem_ctrls.perBankRdBursts::13           420827                       # Per bank write bursts
system.mem_ctrls.perBankRdBursts::14           398629                       # Per bank write bursts
system.mem_ctrls.perBankRdBursts::15           387797                       # Per bank write bursts
system.mem_ctrls.perBankWrBursts::0            239422                       # Per bank write bursts
system.mem_ctrls.perBankWrBursts::1            242874                       # Per bank write bursts
system.mem_ctrls.perBankWrBursts::2            244788                       # Per bank write bursts
system.mem_ctrls.perBankWrBursts::3            243500                       # Per bank write bursts
system.mem_ctrls.perBankWrBursts::4            244964                       # Per bank write bursts
system.mem_ctrls.perBankWrBursts::5            243564                       # Per bank write bursts
system.mem_ctrls.perBankWrBursts::6            241470                       # Per bank write bursts
system.mem_ctrls.perBankWrBursts::7            241842                       # Per bank write bursts
system.mem_ctrls.perBankWrBursts::8            248070                       # Per bank write bursts
system.mem_ctrls.perBankWrBursts::9            240136                       # Per bank write bursts
system.mem_ctrls.perBankWrBursts::10           238908                       # Per bank write bursts
system.mem_ctrls.perBankWrBursts::11           241140                       # Per bank write bursts
system.mem_ctrls.perBankWrBursts::12           242071                       # Per bank write bursts
system.mem_ctrls.perBankWrBursts::13           243978                       # Per bank write bursts
system.mem_ctrls.perBankWrBursts::14           240820                       # Per bank write bursts
system.mem_ctrls.perBankWrBursts::15           233647                       # Per bank write bursts
system.mem_ctrls.numRdRetry                         0                       # Number of times read queue was full causing retry
system.mem_ctrls.numWrRetry                         0                       # Number of times write queue was full causing retry
system.mem_ctrls.totGap                  754382413000                       # Total gap between requests
system.mem_ctrls.readPktSize::0                     0                       # Read request sizes (log2)
system.mem_ctrls.readPktSize::1                     0                       # Read request sizes (log2)
system.mem_ctrls.readPktSize::2                     0                       # Read request sizes (log2)
system.mem_ctrls.readPktSize::3                     0                       # Read request sizes (log2)
system.mem_ctrls.readPktSize::4                     0                       # Read request sizes (log2)
system.mem_ctrls.readPktSize::5                     0                       # Read request sizes (log2)
system.mem_ctrls.readPktSize::6               6608868                       # Read request sizes (log2)
system.mem_ctrls.writePktSize::0                    0                       # Write request sizes (log2)
system.mem_ctrls.writePktSize::1                    0                       # Write request sizes (log2)
system.mem_ctrls.writePktSize::2                    0                       # Write request sizes (log2)
system.mem_ctrls.writePktSize::3                    0                       # Write request sizes (log2)
system.mem_ctrls.writePktSize::4                    0                       # Write request sizes (log2)
system.mem_ctrls.writePktSize::5                    0                       # Write request sizes (log2)
system.mem_ctrls.writePktSize::6              3871208                       # Write request sizes (log2)
system.mem_ctrls.rdQLenPdf::0                 3287929                       # What read queue length does an incoming req see
system.mem_ctrls.rdQLenPdf::1                 3289475                       # What read queue length does an incoming req see
system.mem_ctrls.rdQLenPdf::2                   12946                       # What read queue length does an incoming req see
system.mem_ctrls.rdQLenPdf::3                   11370                       # What read queue length does an incoming req see
system.mem_ctrls.rdQLenPdf::4                      38                       # What read queue length does an incoming req see
system.mem_ctrls.rdQLenPdf::5                      28                       # What read queue length does an incoming req see
system.mem_ctrls.rdQLenPdf::6                       1                       # What read queue length does an incoming req see
system.mem_ctrls.rdQLenPdf::7                       1                       # What read queue length does an incoming req see
system.mem_ctrls.rdQLenPdf::8                       0                       # What read queue length does an incoming req see
system.mem_ctrls.rdQLenPdf::9                       0                       # What read queue length does an incoming req see
system.mem_ctrls.rdQLenPdf::10                      0                       # What read queue length does an incoming req see
system.mem_ctrls.rdQLenPdf::11                      0                       # What read queue length does an incoming req see
system.mem_ctrls.rdQLenPdf::12                      0                       # What read queue length does an incoming req see
system.mem_ctrls.rdQLenPdf::13                      0                       # What read queue length does an incoming req see
system.mem_ctrls.rdQLenPdf::14                      0                       # What read queue length does an incoming req see
system.mem_ctrls.rdQLenPdf::15                      0                       # What read queue length does an incoming req see
system.mem_ctrls.rdQLenPdf::16                      0                       # What read queue length does an incoming req see
system.mem_ctrls.rdQLenPdf::17                      0                       # What read queue length does an incoming req see
system.mem_ctrls.rdQLenPdf::18                      0                       # What read queue length does an incoming req see
system.mem_ctrls.rdQLenPdf::19                      0                       # What read queue length does an incoming req see
system.mem_ctrls.rdQLenPdf::20                      0                       # What read queue length does an incoming req see
system.mem_ctrls.rdQLenPdf::21                      0                       # What read queue length does an incoming req see
system.mem_ctrls.rdQLenPdf::22                      0                       # What read queue length does an incoming req see
system.mem_ctrls.rdQLenPdf::23                      0                       # What read queue length does an incoming req see
system.mem_ctrls.rdQLenPdf::24                      0                       # What read queue length does an incoming req see
system.mem_ctrls.rdQLenPdf::25                      0                       # What read queue length does an incoming req see
system.mem_ctrls.rdQLenPdf::26                      0                       # What read queue length does an incoming req see
system.mem_ctrls.rdQLenPdf::27                      0                       # What read queue length does an incoming req see
system.mem_ctrls.rdQLenPdf::28                      0                       # What read queue length does an incoming req see
system.mem_ctrls.rdQLenPdf::29                      0                       # What read queue length does an incoming req see
system.mem_ctrls.rdQLenPdf::30                      0                       # What read queue length does an incoming req see
system.mem_ctrls.rdQLenPdf::31                      0                       # What read queue length does an incoming req see
system.mem_ctrls.wrQLenPdf::0                       0                       # What write queue length does an incoming req see
system.mem_ctrls.wrQLenPdf::1                       0                       # What write queue length does an incoming req see
system.mem_ctrls.wrQLenPdf::2                       0                       # What write queue length does an incoming req see
system.mem_ctrls.wrQLenPdf::3                       0                       # What write queue length does an incoming req see
system.mem_ctrls.wrQLenPdf::4                       0                       # What write queue length does an incoming req see
system.mem_ctrls.wrQLenPdf::5                       0                       # What write queue length does an incoming req see
system.mem_ctrls.wrQLenPdf::6                       0                       # What write queue length does an incoming req see
system.mem_ctrls.wrQLenPdf::7                       0                       # What write queue length does an incoming req see
system.mem_ctrls.wrQLenPdf::8                       0                       # What write queue length does an incoming req see
system.mem_ctrls.wrQLenPdf::9                       0                       # What write queue length does an incoming req see
system.mem_ctrls.wrQLenPdf::10                      0                       # What write queue length does an incoming req see
system.mem_ctrls.wrQLenPdf::11                      0                       # What write queue length does an incoming req see
system.mem_ctrls.wrQLenPdf::12                      0                       # What write queue length does an incoming req see
system.mem_ctrls.wrQLenPdf::13                      0                       # What write queue length does an incoming req see
system.mem_ctrls.wrQLenPdf::14                      0                       # What write queue length does an incoming req see
system.mem_ctrls.wrQLenPdf::15                 131100                       # What write queue length does an incoming req see
system.mem_ctrls.wrQLenPdf::16                 157302                       # What write queue length does an incoming req see
system.mem_ctrls.wrQLenPdf::17                 204931                       # What write queue length does an incoming req see
system.mem_ctrls.wrQLenPdf::18                 215502                       # What write queue length does an incoming req see
system.mem_ctrls.wrQLenPdf::19                 224842                       # What write queue length does an incoming req see
system.mem_ctrls.wrQLenPdf::20                 222523                       # What write queue length does an incoming req see
system.mem_ctrls.wrQLenPdf::21                 221134                       # What write queue length does an incoming req see
system.mem_ctrls.wrQLenPdf::22                 220770                       # What write queue length does an incoming req see
system.mem_ctrls.wrQLenPdf::23                 220759                       # What write queue length does an incoming req see
system.mem_ctrls.wrQLenPdf::24                 221062                       # What write queue length does an incoming req see
system.mem_ctrls.wrQLenPdf::25                 221762                       # What write queue length does an incoming req see
system.mem_ctrls.wrQLenPdf::26                 222895                       # What write queue length does an incoming req see
system.mem_ctrls.wrQLenPdf::27                 223817                       # What write queue length does an incoming req see
system.mem_ctrls.wrQLenPdf::28                 223239                       # What write queue length does an incoming req see
system.mem_ctrls.wrQLenPdf::29                 222566                       # What write queue length does an incoming req see
system.mem_ctrls.wrQLenPdf::30                 224878                       # What write queue length does an incoming req see
system.mem_ctrls.wrQLenPdf::31                 224183                       # What write queue length does an incoming req see
system.mem_ctrls.wrQLenPdf::32                 225477                       # What write queue length does an incoming req see
system.mem_ctrls.wrQLenPdf::33                  40196                       # What write queue length does an incoming req see
system.mem_ctrls.wrQLenPdf::34                   1795                       # What write queue length does an incoming req see
system.mem_ctrls.wrQLenPdf::35                    259                       # What write queue length does an incoming req see
system.mem_ctrls.wrQLenPdf::36                    128                       # What write queue length does an incoming req see
system.mem_ctrls.wrQLenPdf::37                     43                       # What write queue length does an incoming req see
system.mem_ctrls.wrQLenPdf::38                     26                       # What write queue length does an incoming req see
system.mem_ctrls.wrQLenPdf::39                     10                       # What write queue length does an incoming req see
system.mem_ctrls.wrQLenPdf::40                      5                       # What write queue length does an incoming req see
system.mem_ctrls.wrQLenPdf::41                      0                       # What write queue length does an incoming req see
system.mem_ctrls.wrQLenPdf::42                      0                       # What write queue length does an incoming req see
system.mem_ctrls.wrQLenPdf::43                      0                       # What write queue length does an incoming req see
system.mem_ctrls.wrQLenPdf::44                      0                       # What write queue length does an incoming req see
system.mem_ctrls.wrQLenPdf::45                      0                       # What write queue length does an incoming req see
system.mem_ctrls.wrQLenPdf::46                      0                       # What write queue length does an incoming req see
system.mem_ctrls.wrQLenPdf::47                      0                       # What write queue length does an incoming req see
system.mem_ctrls.wrQLenPdf::48                      0                       # What write queue length does an incoming req see
system.mem_ctrls.wrQLenPdf::49                      0                       # What write queue length does an incoming req see
system.mem_ctrls.wrQLenPdf::50                      0                       # What write queue length does an incoming req see
system.mem_ctrls.wrQLenPdf::51                      0                       # What write queue length does an incoming req see
system.mem_ctrls.wrQLenPdf::52                      0                       # What write queue length does an incoming req see
system.mem_ctrls.wrQLenPdf::53                      0                       # What write queue length does an incoming req see
system.mem_ctrls.wrQLenPdf::54                      0                       # What write queue length does an incoming req see
system.mem_ctrls.wrQLenPdf::55                      0                       # What write queue length does an incoming req see
system.mem_ctrls.wrQLenPdf::56                      0                       # What write queue length does an incoming req see
system.mem_ctrls.wrQLenPdf::57                      0                       # What write queue length does an incoming req see
system.mem_ctrls.wrQLenPdf::58                      0                       # What write queue length does an incoming req see
system.mem_ctrls.wrQLenPdf::59                      0                       # What write queue length does an incoming req see
system.mem_ctrls.wrQLenPdf::60                      0                       # What write queue length does an incoming req see
system.mem_ctrls.wrQLenPdf::61                      0                       # What write queue length does an incoming req see
system.mem_ctrls.wrQLenPdf::62                      0                       # What write queue length does an incoming req see
system.mem_ctrls.wrQLenPdf::63                      0                       # What write queue length does an incoming req see
system.mem_ctrls.bytesPerActivate::samples      5027640                       # Bytes accessed per row activation
system.mem_ctrls.bytesPerActivate::mean    133.317243                       # Bytes accessed per row activation
system.mem_ctrls.bytesPerActivate::gmean   128.699741                       # Bytes accessed per row activation
system.mem_ctrls.bytesPerActivate::stdev    49.437620                       # Bytes accessed per row activation
system.mem_ctrls.bytesPerActivate::0-127       261510      5.20%      5.20% # Bytes accessed per row activation
system.mem_ctrls.bytesPerActivate::128-255      4495506     89.42%     94.62% # Bytes accessed per row activation
system.mem_ctrls.bytesPerActivate::256-383       244962      4.87%     99.49% # Bytes accessed per row activation
system.mem_ctrls.bytesPerActivate::384-511        14443      0.29%     99.78% # Bytes accessed per row activation
system.mem_ctrls.bytesPerActivate::512-639         3450      0.07%     99.85% # Bytes accessed per row activation
system.mem_ctrls.bytesPerActivate::640-767          432      0.01%     99.85% # Bytes accessed per row activation
system.mem_ctrls.bytesPerActivate::768-895          302      0.01%     99.86% # Bytes accessed per row activation
system.mem_ctrls.bytesPerActivate::896-1023          245      0.00%     99.86% # Bytes accessed per row activation
system.mem_ctrls.bytesPerActivate::1024-1151         6790      0.14%    100.00% # Bytes accessed per row activation
system.mem_ctrls.bytesPerActivate::total      5027640                       # Bytes accessed per row activation
system.mem_ctrls.rdPerTurnAround::samples       219877                       # Reads before turning the bus around for writes
system.mem_ctrls.rdPerTurnAround::mean      30.032564                       # Reads before turning the bus around for writes
system.mem_ctrls.rdPerTurnAround::stdev     26.948047                       # Reads before turning the bus around for writes
system.mem_ctrls.rdPerTurnAround::0-511        219866     99.99%     99.99% # Reads before turning the bus around for writes
system.mem_ctrls.rdPerTurnAround::512-1023            6      0.00%    100.00% # Reads before turning the bus around for writes
system.mem_ctrls.rdPerTurnAround::1024-1535            2      0.00%    100.00% # Reads before turning the bus around for writes
system.mem_ctrls.rdPerTurnAround::1536-2047            1      0.00%    100.00% # Reads before turning the bus around for writes
system.mem_ctrls.rdPerTurnAround::3072-3583            1      0.00%    100.00% # Reads before turning the bus around for writes
system.mem_ctrls.rdPerTurnAround::10240-10751            1      0.00%    100.00% # Reads before turning the bus around for writes
system.mem_ctrls.rdPerTurnAround::total        219877                       # Reads before turning the bus around for writes
system.mem_ctrls.wrPerTurnAround::samples       219877                       # Writes before turning the bus around for reads
system.mem_ctrls.wrPerTurnAround::mean      17.606180                       # Writes before turning the bus around for reads
system.mem_ctrls.wrPerTurnAround::gmean     17.560399                       # Writes before turning the bus around for reads
system.mem_ctrls.wrPerTurnAround::stdev      1.294018                       # Writes before turning the bus around for reads
system.mem_ctrls.wrPerTurnAround::16            58430     26.57%     26.57% # Writes before turning the bus around for reads
system.mem_ctrls.wrPerTurnAround::17            27275     12.40%     38.98% # Writes before turning the bus around for reads
system.mem_ctrls.wrPerTurnAround::18           101575     46.20%     85.17% # Writes before turning the bus around for reads
system.mem_ctrls.wrPerTurnAround::19            16616      7.56%     92.73% # Writes before turning the bus around for reads
system.mem_ctrls.wrPerTurnAround::20            10573      4.81%     97.54% # Writes before turning the bus around for reads
system.mem_ctrls.wrPerTurnAround::21             3182      1.45%     98.99% # Writes before turning the bus around for reads
system.mem_ctrls.wrPerTurnAround::22             1609      0.73%     99.72% # Writes before turning the bus around for reads
system.mem_ctrls.wrPerTurnAround::23              329      0.15%     99.87% # Writes before turning the bus around for reads
system.mem_ctrls.wrPerTurnAround::24              179      0.08%     99.95% # Writes before turning the bus around for reads
system.mem_ctrls.wrPerTurnAround::25               28      0.01%     99.96% # Writes before turning the bus around for reads
system.mem_ctrls.wrPerTurnAround::26               36      0.02%     99.98% # Writes before turning the bus around for reads
system.mem_ctrls.wrPerTurnAround::27                1      0.00%     99.98% # Writes before turning the bus around for reads
system.mem_ctrls.wrPerTurnAround::28               10      0.00%     99.98% # Writes before turning the bus around for reads
system.mem_ctrls.wrPerTurnAround::29                1      0.00%     99.98% # Writes before turning the bus around for reads
system.mem_ctrls.wrPerTurnAround::30               27      0.01%    100.00% # Writes before turning the bus around for reads
system.mem_ctrls.wrPerTurnAround::32                1      0.00%    100.00% # Writes before turning the bus around for reads
system.mem_ctrls.wrPerTurnAround::34                1      0.00%    100.00% # Writes before turning the bus around for reads
system.mem_ctrls.wrPerTurnAround::36                1      0.00%    100.00% # Writes before turning the bus around for reads
system.mem_ctrls.wrPerTurnAround::42                1      0.00%    100.00% # Writes before turning the bus around for reads
system.mem_ctrls.wrPerTurnAround::56                1      0.00%    100.00% # Writes before turning the bus around for reads
system.mem_ctrls.wrPerTurnAround::60                1      0.00%    100.00% # Writes before turning the bus around for reads
system.mem_ctrls.wrPerTurnAround::total        219877                       # Writes before turning the bus around for reads
system.mem_ctrls.totQLat                 183519731984                       # Total ticks spent queuing
system.mem_ctrls.totMemAccLat            307303256984                       # Total ticks spent from burst creation until serviced by the DRAM
system.mem_ctrls.totBusLat                33008940000                       # Total ticks spent in databus transfers
system.mem_ctrls.avgQLat                     27798.49                       # Average queueing delay per DRAM burst
system.mem_ctrls.avgBusLat                    5000.00                       # Average bus latency per DRAM burst
system.mem_ctrls.avgMemAccLat                46548.49                       # Average memory access latency per DRAM burst
system.mem_ctrls.avgRdBW                       560.08                       # Average DRAM read bandwidth in MiByte/s
system.mem_ctrls.avgWrBW                       328.42                       # Average achieved write bandwidth in MiByte/s
system.mem_ctrls.avgRdBWSys                    560.68                       # Average system read bandwidth in MiByte/s
system.mem_ctrls.avgWrBWSys                    328.42                       # Average system write bandwidth in MiByte/s
system.mem_ctrls.peakBW                      12800.00                       # Theoretical peak bandwidth in MiByte/s
system.mem_ctrls.busUtil                         6.94                       # Data bus utilization in percentage
system.mem_ctrls.busUtilRead                     4.38                       # Data bus utilization in percentage for reads
system.mem_ctrls.busUtilWrite                    2.57                       # Data bus utilization in percentage for writes
system.mem_ctrls.avgRdQLen                       2.00                       # Average read queue length when enqueuing
system.mem_ctrls.avgWrQLen                      25.50                       # Average write queue length when enqueuing
system.mem_ctrls.readRowHits                  3567562                       # Number of row buffer hits during reads
system.mem_ctrls.writeRowHits                 1877781                       # Number of row buffer hits during writes
system.mem_ctrls.readRowHitRate                 54.04                       # Row buffer hit rate for reads
system.mem_ctrls.writeRowHitRate                48.51                       # Row buffer hit rate for writes
system.mem_ctrls.avgGap                     143965.07                       # Average gap between requests
system.mem_ctrls.pageHitRate                    51.99                       # Row buffer hit rate, read and write combined
system.mem_ctrls_0.actEnergy              19273101120                       # Energy for activate commands per rank (pJ)
system.mem_ctrls_0.preEnergy              10516077000                       # Energy for precharge commands per rank (pJ)
system.mem_ctrls_0.readEnergy             26342362800                       # Energy for read commands per rank (pJ)
system.mem_ctrls_0.writeEnergy            12587179680                       # Energy for write commands per rank (pJ)
system.mem_ctrls_0.refreshEnergy          49707162960                       # Energy for refresh commands per rank (pJ)
system.mem_ctrls_0.actBackEnergy         485558562105                       # Energy for active background per rank (pJ)
system.mem_ctrls_0.preBackEnergy          30693109500                       # Energy for precharge background per rank (pJ)
system.mem_ctrls_0.totalEnergy           634677555165                       # Total energy per rank (pJ)
system.mem_ctrls_0.averagePower            833.965087                       # Core power per rank (mW)
system.mem_ctrls_0.memoryStateTime::IDLE  44899973751                       # Time in different power states
system.mem_ctrls_0.memoryStateTime::REF   25190620000                       # Time in different power states
system.mem_ctrls_0.memoryStateTime::PRE_PDN            0                       # Time in different power states
system.mem_ctrls_0.memoryStateTime::ACT  684293430249                       # Time in different power states
system.mem_ctrls_0.memoryStateTime::ACT_PDN            0                       # Time in different power states
system.mem_ctrls_1.actEnergy              18770436720                       # Energy for activate commands per rank (pJ)
system.mem_ctrls_1.preEnergy              10241805750                       # Energy for precharge commands per rank (pJ)
system.mem_ctrls_1.readEnergy             25384858200                       # Energy for read commands per rank (pJ)
system.mem_ctrls_1.writeEnergy            12499408080                       # Energy for write commands per rank (pJ)
system.mem_ctrls_1.refreshEnergy          49707162960                       # Energy for refresh commands per rank (pJ)
system.mem_ctrls_1.actBackEnergy         485686306800                       # Energy for active background per rank (pJ)
system.mem_ctrls_1.preBackEnergy          30581044500                       # Energy for precharge background per rank (pJ)
system.mem_ctrls_1.totalEnergy           632871023010                       # Total energy per rank (pJ)
system.mem_ctrls_1.averagePower            831.591322                       # Core power per rank (mW)
system.mem_ctrls_1.memoryStateTime::IDLE  45152159500                       # Time in different power states
system.mem_ctrls_1.memoryStateTime::REF   25190620000                       # Time in different power states
system.mem_ctrls_1.memoryStateTime::PRE_PDN            0                       # Time in different power states
system.mem_ctrls_1.memoryStateTime::ACT  684043610500                       # Time in different power states
system.mem_ctrls_1.memoryStateTime::ACT_PDN            0                       # Time in different power states
system.cpu_voltage_domain.voltage                   1                       # Voltage in Volts
system.cpu_clk_domain.clock                       500                       # Clock period in ticks
system.cpu0.apic_clk_domain.clock                8000                       # Clock period in ticks
system.cpu0.numCycles                      1510590328                       # number of cpu cycles simulated
system.cpu0.numWorkItemsStarted                     0                       # number of work items this cpu started
system.cpu0.numWorkItemsCompleted                   0                       # number of work items this cpu completed
system.cpu0.kern.inst.arm                           0                       # number of arm instructions executed
system.cpu0.kern.inst.quiesce                       0                       # number of quiesce instructions executed
system.cpu0.committedInsts                    2156394                       # Number of instructions committed
system.cpu0.committedOps                      4343403                       # Number of ops (including micro ops) committed
system.cpu0.num_int_alu_accesses              4233408                       # Number of integer alu accesses
system.cpu0.num_fp_alu_accesses                   372                       # Number of float alu accesses
system.cpu0.num_func_calls                      93822                       # number of times a function call or return occured
system.cpu0.num_conditional_control_insts       365211                       # number of instructions that are conditional controls
system.cpu0.num_int_insts                     4233408                       # number of integer instructions
system.cpu0.num_fp_insts                          372                       # number of float instructions
system.cpu0.num_int_register_reads            8170069                       # number of times the integer registers were read
system.cpu0.num_int_register_writes           3461272                       # number of times the integer registers were written
system.cpu0.num_fp_register_reads                 596                       # number of times the floating registers were read
system.cpu0.num_fp_register_writes                261                       # number of times the floating registers were written
system.cpu0.num_cc_register_reads             2713073                       # number of times the CC registers were read
system.cpu0.num_cc_register_writes            1662886                       # number of times the CC registers were written
system.cpu0.num_mem_refs                       850288                       # number of memory refs
system.cpu0.num_load_insts                     524221                       # Number of load instructions
system.cpu0.num_store_insts                    326067                       # Number of store instructions
system.cpu0.num_idle_cycles              1502181509.972100                       # Number of idle cycles
system.cpu0.num_busy_cycles              8408818.027900                       # Number of busy cycles
system.cpu0.not_idle_fraction                0.005567                       # Percentage of non-idle cycles
system.cpu0.idle_fraction                    0.994433                       # Percentage of idle cycles
system.cpu0.Branches                           490759                       # Number of branches fetched
system.cpu0.op_class::No_OpClass                30903      0.71%      0.71% # Class of executed instruction
system.cpu0.op_class::IntAlu                  3449753     79.42%     80.13% # Class of executed instruction
system.cpu0.op_class::IntMult                    3853      0.09%     80.22% # Class of executed instruction
system.cpu0.op_class::IntDiv                     8450      0.19%     80.42% # Class of executed instruction
system.cpu0.op_class::FloatAdd                    244      0.01%     80.42% # Class of executed instruction
system.cpu0.op_class::FloatCmp                      0      0.00%     80.42% # Class of executed instruction
system.cpu0.op_class::FloatCvt                      0      0.00%     80.42% # Class of executed instruction
system.cpu0.op_class::FloatMult                     0      0.00%     80.42% # Class of executed instruction
system.cpu0.op_class::FloatDiv                      0      0.00%     80.42% # Class of executed instruction
system.cpu0.op_class::FloatSqrt                     0      0.00%     80.42% # Class of executed instruction
system.cpu0.op_class::SimdAdd                       0      0.00%     80.42% # Class of executed instruction
system.cpu0.op_class::SimdAddAcc                    0      0.00%     80.42% # Class of executed instruction
system.cpu0.op_class::SimdAlu                       0      0.00%     80.42% # Class of executed instruction
system.cpu0.op_class::SimdCmp                       0      0.00%     80.42% # Class of executed instruction
system.cpu0.op_class::SimdCvt                       0      0.00%     80.42% # Class of executed instruction
system.cpu0.op_class::SimdMisc                      0      0.00%     80.42% # Class of executed instruction
system.cpu0.op_class::SimdMult                      0      0.00%     80.42% # Class of executed instruction
system.cpu0.op_class::SimdMultAcc                   0      0.00%     80.42% # Class of executed instruction
system.cpu0.op_class::SimdShift                     0      0.00%     80.42% # Class of executed instruction
system.cpu0.op_class::SimdShiftAcc                  0      0.00%     80.42% # Class of executed instruction
system.cpu0.op_class::SimdSqrt                      0      0.00%     80.42% # Class of executed instruction
system.cpu0.op_class::SimdFloatAdd                  0      0.00%     80.42% # Class of executed instruction
system.cpu0.op_class::SimdFloatAlu                  0      0.00%     80.42% # Class of executed instruction
system.cpu0.op_class::SimdFloatCmp                  0      0.00%     80.42% # Class of executed instruction
system.cpu0.op_class::SimdFloatCvt                  0      0.00%     80.42% # Class of executed instruction
system.cpu0.op_class::SimdFloatDiv                  0      0.00%     80.42% # Class of executed instruction
system.cpu0.op_class::SimdFloatMisc                 0      0.00%     80.42% # Class of executed instruction
system.cpu0.op_class::SimdFloatMult                 0      0.00%     80.42% # Class of executed instruction
system.cpu0.op_class::SimdFloatMultAcc              0      0.00%     80.42% # Class of executed instruction
system.cpu0.op_class::SimdFloatSqrt                 0      0.00%     80.42% # Class of executed instruction
system.cpu0.op_class::MemRead                  524221     12.07%     92.49% # Class of executed instruction
system.cpu0.op_class::MemWrite                 326067      7.51%    100.00% # Class of executed instruction
system.cpu0.op_class::IprAccess                     0      0.00%    100.00% # Class of executed instruction
system.cpu0.op_class::InstPrefetch                  0      0.00%    100.00% # Class of executed instruction
system.cpu0.op_class::total                   4343491                       # Class of executed instruction
system.cpu1.apic_clk_domain.clock                8000                       # Clock period in ticks
system.cpu1.numCycles                      1505115578                       # number of cpu cycles simulated
system.cpu1.numWorkItemsStarted                     0                       # number of work items this cpu started
system.cpu1.numWorkItemsCompleted                   0                       # number of work items this cpu completed
system.cpu1.kern.inst.arm                           0                       # number of arm instructions executed
system.cpu1.kern.inst.quiesce                       0                       # number of quiesce instructions executed
system.cpu1.committedInsts                    2325135                       # Number of instructions committed
system.cpu1.committedOps                      4711587                       # Number of ops (including micro ops) committed
system.cpu1.num_int_alu_accesses              4633154                       # Number of integer alu accesses
system.cpu1.num_fp_alu_accesses                    68                       # Number of float alu accesses
system.cpu1.num_func_calls                     110618                       # number of times a function call or return occured
system.cpu1.num_conditional_control_insts       409046                       # number of instructions that are conditional controls
system.cpu1.num_int_insts                     4633154                       # number of integer instructions
system.cpu1.num_fp_insts                           68                       # number of float instructions
system.cpu1.num_int_register_reads            9016948                       # number of times the integer registers were read
system.cpu1.num_int_register_writes           3804050                       # number of times the integer registers were written
system.cpu1.num_fp_register_reads                  70                       # number of times the floating registers were read
system.cpu1.num_fp_register_writes                 62                       # number of times the floating registers were written
system.cpu1.num_cc_register_reads             3005469                       # number of times the CC registers were read
system.cpu1.num_cc_register_writes            1626074                       # number of times the CC registers were written
system.cpu1.num_mem_refs                       926637                       # number of memory refs
system.cpu1.num_load_insts                     594291                       # Number of load instructions
system.cpu1.num_store_insts                    332346                       # Number of store instructions
system.cpu1.num_idle_cycles              1496216669.902871                       # Number of idle cycles
system.cpu1.num_busy_cycles              8898908.097129                       # Number of busy cycles
system.cpu1.not_idle_fraction                0.005912                       # Percentage of non-idle cycles
system.cpu1.idle_fraction                    0.994088                       # Percentage of idle cycles
system.cpu1.Branches                           555913                       # Number of branches fetched
system.cpu1.op_class::No_OpClass                45875      0.97%      0.97% # Class of executed instruction
system.cpu1.op_class::IntAlu                  3723328     79.02%     79.99% # Class of executed instruction
system.cpu1.op_class::IntMult                    7413      0.16%     80.15% # Class of executed instruction
system.cpu1.op_class::IntDiv                     8871      0.19%     80.33% # Class of executed instruction
system.cpu1.op_class::FloatAdd                     24      0.00%     80.34% # Class of executed instruction
system.cpu1.op_class::FloatCmp                      0      0.00%     80.34% # Class of executed instruction
system.cpu1.op_class::FloatCvt                      0      0.00%     80.34% # Class of executed instruction
system.cpu1.op_class::FloatMult                     0      0.00%     80.34% # Class of executed instruction
system.cpu1.op_class::FloatDiv                      0      0.00%     80.34% # Class of executed instruction
system.cpu1.op_class::FloatSqrt                     0      0.00%     80.34% # Class of executed instruction
system.cpu1.op_class::SimdAdd                       0      0.00%     80.34% # Class of executed instruction
system.cpu1.op_class::SimdAddAcc                    0      0.00%     80.34% # Class of executed instruction
system.cpu1.op_class::SimdAlu                       0      0.00%     80.34% # Class of executed instruction
system.cpu1.op_class::SimdCmp                       0      0.00%     80.34% # Class of executed instruction
system.cpu1.op_class::SimdCvt                       0      0.00%     80.34% # Class of executed instruction
system.cpu1.op_class::SimdMisc                      0      0.00%     80.34% # Class of executed instruction
system.cpu1.op_class::SimdMult                      0      0.00%     80.34% # Class of executed instruction
system.cpu1.op_class::SimdMultAcc                   0      0.00%     80.34% # Class of executed instruction
system.cpu1.op_class::SimdShift                     0      0.00%     80.34% # Class of executed instruction
system.cpu1.op_class::SimdShiftAcc                  0      0.00%     80.34% # Class of executed instruction
system.cpu1.op_class::SimdSqrt                      0      0.00%     80.34% # Class of executed instruction
system.cpu1.op_class::SimdFloatAdd                  0      0.00%     80.34% # Class of executed instruction
system.cpu1.op_class::SimdFloatAlu                  0      0.00%     80.34% # Class of executed instruction
system.cpu1.op_class::SimdFloatCmp                  0      0.00%     80.34% # Class of executed instruction
system.cpu1.op_class::SimdFloatCvt                  0      0.00%     80.34% # Class of executed instruction
system.cpu1.op_class::SimdFloatDiv                  0      0.00%     80.34% # Class of executed instruction
system.cpu1.op_class::SimdFloatMisc                 0      0.00%     80.34% # Class of executed instruction
system.cpu1.op_class::SimdFloatMult                 0      0.00%     80.34% # Class of executed instruction
system.cpu1.op_class::SimdFloatMultAcc              0      0.00%     80.34% # Class of executed instruction
system.cpu1.op_class::SimdFloatSqrt                 0      0.00%     80.34% # Class of executed instruction
system.cpu1.op_class::MemRead                  594291     12.61%     92.95% # Class of executed instruction
system.cpu1.op_class::MemWrite                 332346      7.05%    100.00% # Class of executed instruction
system.cpu1.op_class::IprAccess                     0      0.00%    100.00% # Class of executed instruction
system.cpu1.op_class::InstPrefetch                  0      0.00%    100.00% # Class of executed instruction
system.cpu1.op_class::total                   4712148                       # Class of executed instruction
system.cpu2.apic_clk_domain.clock                8000                       # Clock period in ticks
system.cpu2.numCycles                      1507038256                       # number of cpu cycles simulated
system.cpu2.numWorkItemsStarted                     0                       # number of work items this cpu started
system.cpu2.numWorkItemsCompleted                   0                       # number of work items this cpu completed
system.cpu2.kern.inst.arm                           0                       # number of arm instructions executed
system.cpu2.kern.inst.quiesce                       0                       # number of quiesce instructions executed
system.cpu2.committedInsts                    2660410                       # Number of instructions committed
system.cpu2.committedOps                      5215292                       # Number of ops (including micro ops) committed
system.cpu2.num_int_alu_accesses              5137008                       # Number of integer alu accesses
system.cpu2.num_fp_alu_accesses                  1813                       # Number of float alu accesses
system.cpu2.num_func_calls                     127084                       # number of times a function call or return occured
system.cpu2.num_conditional_control_insts       480520                       # number of instructions that are conditional controls
system.cpu2.num_int_insts                     5137008                       # number of integer instructions
system.cpu2.num_fp_insts                         1813                       # number of float instructions
system.cpu2.num_int_register_reads           10032014                       # number of times the integer registers were read
system.cpu2.num_int_register_writes           4149404                       # number of times the integer registers were written
system.cpu2.num_fp_register_reads                3040                       # number of times the floating registers were read
system.cpu2.num_fp_register_writes               1440                       # number of times the floating registers were written
system.cpu2.num_cc_register_reads             3456089                       # number of times the CC registers were read
system.cpu2.num_cc_register_writes            1855339                       # number of times the CC registers were written
system.cpu2.num_mem_refs                      1110823                       # number of memory refs
system.cpu2.num_load_insts                     722399                       # Number of load instructions
system.cpu2.num_store_insts                    388424                       # Number of store instructions
system.cpu2.num_idle_cycles              1497104329.295287                       # Number of idle cycles
system.cpu2.num_busy_cycles              9933926.704713                       # Number of busy cycles
system.cpu2.not_idle_fraction                0.006592                       # Percentage of non-idle cycles
system.cpu2.idle_fraction                    0.993408                       # Percentage of idle cycles
system.cpu2.Branches                           629846                       # Number of branches fetched
system.cpu2.op_class::No_OpClass                21372      0.41%      0.41% # Class of executed instruction
system.cpu2.op_class::IntAlu                  4072686     78.09%     78.50% # Class of executed instruction
system.cpu2.op_class::IntMult                    3915      0.08%     78.57% # Class of executed instruction
system.cpu2.op_class::IntDiv                     5231      0.10%     78.68% # Class of executed instruction
system.cpu2.op_class::FloatAdd                   1356      0.03%     78.70% # Class of executed instruction
system.cpu2.op_class::FloatCmp                      0      0.00%     78.70% # Class of executed instruction
system.cpu2.op_class::FloatCvt                      0      0.00%     78.70% # Class of executed instruction
system.cpu2.op_class::FloatMult                     0      0.00%     78.70% # Class of executed instruction
system.cpu2.op_class::FloatDiv                      0      0.00%     78.70% # Class of executed instruction
system.cpu2.op_class::FloatSqrt                     0      0.00%     78.70% # Class of executed instruction
system.cpu2.op_class::SimdAdd                       0      0.00%     78.70% # Class of executed instruction
system.cpu2.op_class::SimdAddAcc                    0      0.00%     78.70% # Class of executed instruction
system.cpu2.op_class::SimdAlu                       0      0.00%     78.70% # Class of executed instruction
system.cpu2.op_class::SimdCmp                       0      0.00%     78.70% # Class of executed instruction
system.cpu2.op_class::SimdCvt                       0      0.00%     78.70% # Class of executed instruction
system.cpu2.op_class::SimdMisc                      0      0.00%     78.70% # Class of executed instruction
system.cpu2.op_class::SimdMult                      0      0.00%     78.70% # Class of executed instruction
system.cpu2.op_class::SimdMultAcc                   0      0.00%     78.70% # Class of executed instruction
system.cpu2.op_class::SimdShift                     0      0.00%     78.70% # Class of executed instruction
system.cpu2.op_class::SimdShiftAcc                  0      0.00%     78.70% # Class of executed instruction
system.cpu2.op_class::SimdSqrt                      0      0.00%     78.70% # Class of executed instruction
system.cpu2.op_class::SimdFloatAdd                  0      0.00%     78.70% # Class of executed instruction
system.cpu2.op_class::SimdFloatAlu                  0      0.00%     78.70% # Class of executed instruction
system.cpu2.op_class::SimdFloatCmp                  0      0.00%     78.70% # Class of executed instruction
system.cpu2.op_class::SimdFloatCvt                  0      0.00%     78.70% # Class of executed instruction
system.cpu2.op_class::SimdFloatDiv                  0      0.00%     78.70% # Class of executed instruction
system.cpu2.op_class::SimdFloatMisc                 0      0.00%     78.70% # Class of executed instruction
system.cpu2.op_class::SimdFloatMult                 0      0.00%     78.70% # Class of executed instruction
system.cpu2.op_class::SimdFloatMultAcc              0      0.00%     78.70% # Class of executed instruction
system.cpu2.op_class::SimdFloatSqrt                 0      0.00%     78.70% # Class of executed instruction
system.cpu2.op_class::MemRead                  722399     13.85%     92.55% # Class of executed instruction
system.cpu2.op_class::MemWrite                 388424      7.45%    100.00% # Class of executed instruction
system.cpu2.op_class::IprAccess                     0      0.00%    100.00% # Class of executed instruction
system.cpu2.op_class::InstPrefetch                  0      0.00%    100.00% # Class of executed instruction
system.cpu2.op_class::total                   5215383                       # Class of executed instruction
system.cpu3.apic_clk_domain.clock                8000                       # Clock period in ticks
system.cpu3.numCycles                      1512950892                       # number of cpu cycles simulated
system.cpu3.numWorkItemsStarted                     0                       # number of work items this cpu started
system.cpu3.numWorkItemsCompleted                   0                       # number of work items this cpu completed
system.cpu3.kern.inst.arm                           0                       # number of arm instructions executed
system.cpu3.kern.inst.quiesce                       0                       # number of quiesce instructions executed
system.cpu3.committedInsts                  269311166                       # Number of instructions committed
system.cpu3.committedOps                    442623133                       # Number of ops (including micro ops) committed
system.cpu3.num_int_alu_accesses            346596529                       # Number of integer alu accesses
system.cpu3.num_fp_alu_accesses             109594796                       # Number of float alu accesses
system.cpu3.num_func_calls                    5376349                       # number of times a function call or return occured
system.cpu3.num_conditional_control_insts     16425991                       # number of instructions that are conditional controls
system.cpu3.num_int_insts                   346596529                       # number of integer instructions
system.cpu3.num_fp_insts                    109594796                       # number of float instructions
system.cpu3.num_int_register_reads          737212945                       # number of times the integer registers were read
system.cpu3.num_int_register_writes         276106180                       # number of times the integer registers were written
system.cpu3.num_fp_register_reads           204618505                       # number of times the floating registers were read
system.cpu3.num_fp_register_writes          105641815                       # number of times the floating registers were written
system.cpu3.num_cc_register_reads           177491524                       # number of times the CC registers were read
system.cpu3.num_cc_register_writes          152800043                       # number of times the CC registers were written
system.cpu3.num_mem_refs                     92897804                       # number of memory refs
system.cpu3.num_load_insts                   73867566                       # Number of load instructions
system.cpu3.num_store_insts                  19030238                       # Number of store instructions
system.cpu3.num_idle_cycles              13960631.037680                       # Number of idle cycles
system.cpu3.num_busy_cycles              1498990260.962321                       # Number of busy cycles
system.cpu3.not_idle_fraction                0.990773                       # Percentage of non-idle cycles
system.cpu3.idle_fraction                    0.009227                       # Percentage of idle cycles
system.cpu3.Branches                         26498449                       # Number of branches fetched
system.cpu3.op_class::No_OpClass              3912769      0.88%      0.88% # Class of executed instruction
system.cpu3.op_class::IntAlu                254795605     57.56%     58.45% # Class of executed instruction
system.cpu3.op_class::IntMult                    3344      0.00%     58.45% # Class of executed instruction
system.cpu3.op_class::IntDiv                      491      0.00%     58.45% # Class of executed instruction
system.cpu3.op_class::FloatAdd               91015655     20.56%     79.01% # Class of executed instruction
system.cpu3.op_class::FloatCmp                      0      0.00%     79.01% # Class of executed instruction
system.cpu3.op_class::FloatCvt                      0      0.00%     79.01% # Class of executed instruction
system.cpu3.op_class::FloatMult                     0      0.00%     79.01% # Class of executed instruction
system.cpu3.op_class::FloatDiv                      0      0.00%     79.01% # Class of executed instruction
system.cpu3.op_class::FloatSqrt                     0      0.00%     79.01% # Class of executed instruction
system.cpu3.op_class::SimdAdd                       0      0.00%     79.01% # Class of executed instruction
system.cpu3.op_class::SimdAddAcc                    0      0.00%     79.01% # Class of executed instruction
system.cpu3.op_class::SimdAlu                       0      0.00%     79.01% # Class of executed instruction
system.cpu3.op_class::SimdCmp                       0      0.00%     79.01% # Class of executed instruction
system.cpu3.op_class::SimdCvt                       0      0.00%     79.01% # Class of executed instruction
system.cpu3.op_class::SimdMisc                      0      0.00%     79.01% # Class of executed instruction
system.cpu3.op_class::SimdMult                      0      0.00%     79.01% # Class of executed instruction
system.cpu3.op_class::SimdMultAcc                   0      0.00%     79.01% # Class of executed instruction
system.cpu3.op_class::SimdShift                     0      0.00%     79.01% # Class of executed instruction
system.cpu3.op_class::SimdShiftAcc                  0      0.00%     79.01% # Class of executed instruction
system.cpu3.op_class::SimdSqrt                      0      0.00%     79.01% # Class of executed instruction
system.cpu3.op_class::SimdFloatAdd                  0      0.00%     79.01% # Class of executed instruction
system.cpu3.op_class::SimdFloatAlu                  0      0.00%     79.01% # Class of executed instruction
system.cpu3.op_class::SimdFloatCmp                  0      0.00%     79.01% # Class of executed instruction
system.cpu3.op_class::SimdFloatCvt                  0      0.00%     79.01% # Class of executed instruction
system.cpu3.op_class::SimdFloatDiv                  0      0.00%     79.01% # Class of executed instruction
system.cpu3.op_class::SimdFloatMisc                 0      0.00%     79.01% # Class of executed instruction
system.cpu3.op_class::SimdFloatMult                 0      0.00%     79.01% # Class of executed instruction
system.cpu3.op_class::SimdFloatMultAcc              0      0.00%     79.01% # Class of executed instruction
system.cpu3.op_class::SimdFloatSqrt                 0      0.00%     79.01% # Class of executed instruction
system.cpu3.op_class::MemRead                73867566     16.69%     95.70% # Class of executed instruction
system.cpu3.op_class::MemWrite               19030238      4.30%    100.00% # Class of executed instruction
system.cpu3.op_class::IprAccess                     0      0.00%    100.00% # Class of executed instruction
system.cpu3.op_class::InstPrefetch                  0      0.00%    100.00% # Class of executed instruction
system.cpu3.op_class::total                 442625668                       # Class of executed instruction
system.iobus.trans_dist::ReadReq                  554                       # Transaction distribution
system.iobus.trans_dist::ReadResp                 554                       # Transaction distribution
system.iobus.trans_dist::WriteReq                1767                       # Transaction distribution
system.iobus.trans_dist::WriteResp               1767                       # Transaction distribution
system.iobus.trans_dist::MessageReq                75                       # Transaction distribution
system.iobus.trans_dist::MessageResp               75                       # Transaction distribution
system.iobus.pkt_count_system.pc.south_bridge.io_apic.int_master::system.ruby.l1_cntrl0.sequencer.pio-slave-port           30                       # Packet count per connected master and slave (bytes)
system.iobus.pkt_count_system.pc.south_bridge.io_apic.int_master::system.ruby.l1_cntrl1.sequencer.pio-slave-port           30                       # Packet count per connected master and slave (bytes)
system.iobus.pkt_count_system.pc.south_bridge.io_apic.int_master::system.ruby.l1_cntrl2.sequencer.pio-slave-port           32                       # Packet count per connected master and slave (bytes)
system.iobus.pkt_count_system.pc.south_bridge.io_apic.int_master::system.ruby.l1_cntrl3.sequencer.pio-slave-port           32                       # Packet count per connected master and slave (bytes)
system.iobus.pkt_count_system.pc.south_bridge.io_apic.int_master::total          124                       # Packet count per connected master and slave (bytes)
system.iobus.pkt_count_system.ruby.l1_cntrl0.sequencer.mem-master-port::system.pc.south_bridge.ide.pio          588                       # Packet count per connected master and slave (bytes)
system.iobus.pkt_count_system.ruby.l1_cntrl0.sequencer.mem-master-port::system.pc.com_1.pio            2                       # Packet count per connected master and slave (bytes)
system.iobus.pkt_count_system.ruby.l1_cntrl0.sequencer.mem-master-port::system.ruby.l1_cntrl0.sequencer.pio-slave-port          440                       # Packet count per connected master and slave (bytes)
system.iobus.pkt_count_system.ruby.l1_cntrl0.sequencer.mem-master-port::system.ruby.l1_cntrl1.sequencer.pio-slave-port            4                       # Packet count per connected master and slave (bytes)
system.iobus.pkt_count_system.ruby.l1_cntrl0.sequencer.mem-master-port::system.ruby.l1_cntrl3.sequencer.pio-slave-port            4                       # Packet count per connected master and slave (bytes)
system.iobus.pkt_count_system.ruby.l1_cntrl0.sequencer.mem-master-port::total         1038                       # Packet count per connected master and slave (bytes)
system.iobus.pkt_count_system.ruby.l1_cntrl1.sequencer.mem-master-port::system.pc.south_bridge.ide.pio          882                       # Packet count per connected master and slave (bytes)
system.iobus.pkt_count_system.ruby.l1_cntrl1.sequencer.mem-master-port::system.pc.south_bridge.io_apic.pio            6                       # Packet count per connected master and slave (bytes)
system.iobus.pkt_count_system.ruby.l1_cntrl1.sequencer.mem-master-port::system.pc.com_1.pio          174                       # Packet count per connected master and slave (bytes)
system.iobus.pkt_count_system.ruby.l1_cntrl1.sequencer.mem-master-port::system.ruby.l1_cntrl0.sequencer.pio-slave-port            2                       # Packet count per connected master and slave (bytes)
system.iobus.pkt_count_system.ruby.l1_cntrl1.sequencer.mem-master-port::system.ruby.l1_cntrl1.sequencer.pio-slave-port          426                       # Packet count per connected master and slave (bytes)
system.iobus.pkt_count_system.ruby.l1_cntrl1.sequencer.mem-master-port::system.ruby.l1_cntrl2.sequencer.pio-slave-port            2                       # Packet count per connected master and slave (bytes)
system.iobus.pkt_count_system.ruby.l1_cntrl1.sequencer.mem-master-port::total         1492                       # Packet count per connected master and slave (bytes)
system.iobus.pkt_count_system.ruby.l1_cntrl2.sequencer.mem-master-port::system.pc.south_bridge.ide.pio          622                       # Packet count per connected master and slave (bytes)
system.iobus.pkt_count_system.ruby.l1_cntrl2.sequencer.mem-master-port::system.pc.south_bridge.io_apic.pio            8                       # Packet count per connected master and slave (bytes)
system.iobus.pkt_count_system.ruby.l1_cntrl2.sequencer.mem-master-port::system.ruby.l1_cntrl0.sequencer.pio-slave-port            2                       # Packet count per connected master and slave (bytes)
system.iobus.pkt_count_system.ruby.l1_cntrl2.sequencer.mem-master-port::system.ruby.l1_cntrl1.sequencer.pio-slave-port            2                       # Packet count per connected master and slave (bytes)
system.iobus.pkt_count_system.ruby.l1_cntrl2.sequencer.mem-master-port::system.ruby.l1_cntrl2.sequencer.pio-slave-port          430                       # Packet count per connected master and slave (bytes)
system.iobus.pkt_count_system.ruby.l1_cntrl2.sequencer.mem-master-port::system.ruby.l1_cntrl3.sequencer.pio-slave-port            2                       # Packet count per connected master and slave (bytes)
system.iobus.pkt_count_system.ruby.l1_cntrl2.sequencer.mem-master-port::total         1066                       # Packet count per connected master and slave (bytes)
system.iobus.pkt_count_system.ruby.l1_cntrl3.sequencer.mem-master-port::system.pc.south_bridge.ide.pio          622                       # Packet count per connected master and slave (bytes)
system.iobus.pkt_count_system.ruby.l1_cntrl3.sequencer.mem-master-port::system.pc.south_bridge.io_apic.pio            8                       # Packet count per connected master and slave (bytes)
system.iobus.pkt_count_system.ruby.l1_cntrl3.sequencer.mem-master-port::system.ruby.l1_cntrl0.sequencer.pio-slave-port            4                       # Packet count per connected master and slave (bytes)
system.iobus.pkt_count_system.ruby.l1_cntrl3.sequencer.mem-master-port::system.ruby.l1_cntrl1.sequencer.pio-slave-port            2                       # Packet count per connected master and slave (bytes)
system.iobus.pkt_count_system.ruby.l1_cntrl3.sequencer.mem-master-port::system.ruby.l1_cntrl2.sequencer.pio-slave-port            2                       # Packet count per connected master and slave (bytes)
system.iobus.pkt_count_system.ruby.l1_cntrl3.sequencer.mem-master-port::system.ruby.l1_cntrl3.sequencer.pio-slave-port          434                       # Packet count per connected master and slave (bytes)
system.iobus.pkt_count_system.ruby.l1_cntrl3.sequencer.mem-master-port::total         1072                       # Packet count per connected master and slave (bytes)
system.iobus.pkt_count::total                    4792                       # Packet count per connected master and slave (bytes)
system.iobus.pkt_size_system.pc.south_bridge.io_apic.int_master::system.ruby.l1_cntrl0.sequencer.pio-slave-port           60                       # Cumulative packet size per connected master and slave (bytes)
system.iobus.pkt_size_system.pc.south_bridge.io_apic.int_master::system.ruby.l1_cntrl1.sequencer.pio-slave-port           60                       # Cumulative packet size per connected master and slave (bytes)
system.iobus.pkt_size_system.pc.south_bridge.io_apic.int_master::system.ruby.l1_cntrl2.sequencer.pio-slave-port           64                       # Cumulative packet size per connected master and slave (bytes)
system.iobus.pkt_size_system.pc.south_bridge.io_apic.int_master::system.ruby.l1_cntrl3.sequencer.pio-slave-port           64                       # Cumulative packet size per connected master and slave (bytes)
system.iobus.pkt_size_system.pc.south_bridge.io_apic.int_master::total          248                       # Cumulative packet size per connected master and slave (bytes)
system.iobus.pkt_size_system.ruby.l1_cntrl0.sequencer.mem-master-port::system.pc.south_bridge.ide.pio          330                       # Cumulative packet size per connected master and slave (bytes)
system.iobus.pkt_size_system.ruby.l1_cntrl0.sequencer.mem-master-port::system.pc.com_1.pio            1                       # Cumulative packet size per connected master and slave (bytes)
system.iobus.pkt_size_system.ruby.l1_cntrl0.sequencer.mem-master-port::system.ruby.l1_cntrl0.sequencer.pio-slave-port          880                       # Cumulative packet size per connected master and slave (bytes)
system.iobus.pkt_size_system.ruby.l1_cntrl0.sequencer.mem-master-port::system.ruby.l1_cntrl1.sequencer.pio-slave-port            8                       # Cumulative packet size per connected master and slave (bytes)
system.iobus.pkt_size_system.ruby.l1_cntrl0.sequencer.mem-master-port::system.ruby.l1_cntrl3.sequencer.pio-slave-port            8                       # Cumulative packet size per connected master and slave (bytes)
system.iobus.pkt_size_system.ruby.l1_cntrl0.sequencer.mem-master-port::total         1227                       # Cumulative packet size per connected master and slave (bytes)
system.iobus.pkt_size_system.ruby.l1_cntrl1.sequencer.mem-master-port::system.pc.south_bridge.ide.pio          504                       # Cumulative packet size per connected master and slave (bytes)
system.iobus.pkt_size_system.ruby.l1_cntrl1.sequencer.mem-master-port::system.pc.south_bridge.io_apic.pio           12                       # Cumulative packet size per connected master and slave (bytes)
system.iobus.pkt_size_system.ruby.l1_cntrl1.sequencer.mem-master-port::system.pc.com_1.pio           87                       # Cumulative packet size per connected master and slave (bytes)
system.iobus.pkt_size_system.ruby.l1_cntrl1.sequencer.mem-master-port::system.ruby.l1_cntrl0.sequencer.pio-slave-port            4                       # Cumulative packet size per connected master and slave (bytes)
system.iobus.pkt_size_system.ruby.l1_cntrl1.sequencer.mem-master-port::system.ruby.l1_cntrl1.sequencer.pio-slave-port          852                       # Cumulative packet size per connected master and slave (bytes)
system.iobus.pkt_size_system.ruby.l1_cntrl1.sequencer.mem-master-port::system.ruby.l1_cntrl2.sequencer.pio-slave-port            4                       # Cumulative packet size per connected master and slave (bytes)
system.iobus.pkt_size_system.ruby.l1_cntrl1.sequencer.mem-master-port::total         1463                       # Cumulative packet size per connected master and slave (bytes)
system.iobus.pkt_size_system.ruby.l1_cntrl2.sequencer.mem-master-port::system.pc.south_bridge.ide.pio          350                       # Cumulative packet size per connected master and slave (bytes)
system.iobus.pkt_size_system.ruby.l1_cntrl2.sequencer.mem-master-port::system.pc.south_bridge.io_apic.pio           16                       # Cumulative packet size per connected master and slave (bytes)
system.iobus.pkt_size_system.ruby.l1_cntrl2.sequencer.mem-master-port::system.ruby.l1_cntrl0.sequencer.pio-slave-port            4                       # Cumulative packet size per connected master and slave (bytes)
system.iobus.pkt_size_system.ruby.l1_cntrl2.sequencer.mem-master-port::system.ruby.l1_cntrl1.sequencer.pio-slave-port            4                       # Cumulative packet size per connected master and slave (bytes)
system.iobus.pkt_size_system.ruby.l1_cntrl2.sequencer.mem-master-port::system.ruby.l1_cntrl2.sequencer.pio-slave-port          860                       # Cumulative packet size per connected master and slave (bytes)
system.iobus.pkt_size_system.ruby.l1_cntrl2.sequencer.mem-master-port::system.ruby.l1_cntrl3.sequencer.pio-slave-port            4                       # Cumulative packet size per connected master and slave (bytes)
system.iobus.pkt_size_system.ruby.l1_cntrl2.sequencer.mem-master-port::total         1238                       # Cumulative packet size per connected master and slave (bytes)
system.iobus.pkt_size_system.ruby.l1_cntrl3.sequencer.mem-master-port::system.pc.south_bridge.ide.pio          350                       # Cumulative packet size per connected master and slave (bytes)
system.iobus.pkt_size_system.ruby.l1_cntrl3.sequencer.mem-master-port::system.pc.south_bridge.io_apic.pio           16                       # Cumulative packet size per connected master and slave (bytes)
system.iobus.pkt_size_system.ruby.l1_cntrl3.sequencer.mem-master-port::system.ruby.l1_cntrl0.sequencer.pio-slave-port            8                       # Cumulative packet size per connected master and slave (bytes)
system.iobus.pkt_size_system.ruby.l1_cntrl3.sequencer.mem-master-port::system.ruby.l1_cntrl1.sequencer.pio-slave-port            4                       # Cumulative packet size per connected master and slave (bytes)
system.iobus.pkt_size_system.ruby.l1_cntrl3.sequencer.mem-master-port::system.ruby.l1_cntrl2.sequencer.pio-slave-port            4                       # Cumulative packet size per connected master and slave (bytes)
system.iobus.pkt_size_system.ruby.l1_cntrl3.sequencer.mem-master-port::system.ruby.l1_cntrl3.sequencer.pio-slave-port          868                       # Cumulative packet size per connected master and slave (bytes)
system.iobus.pkt_size_system.ruby.l1_cntrl3.sequencer.mem-master-port::total         1250                       # Cumulative packet size per connected master and slave (bytes)
system.iobus.pkt_size::total                     5426                       # Cumulative packet size per connected master and slave (bytes)
system.iobus.reqLayer2.occupancy              2316500                       # Layer occupancy (ticks)
system.iobus.reqLayer2.utilization                0.0                       # Layer utilization (%)
system.iobus.reqLayer8.occupancy                19997                       # Layer occupancy (ticks)
system.iobus.reqLayer8.utilization                0.0                       # Layer utilization (%)
system.iobus.reqLayer12.occupancy              112500                       # Layer occupancy (ticks)
system.iobus.reqLayer12.utilization               0.0                       # Layer utilization (%)
system.iobus.reqLayer17.occupancy              586984                       # Layer occupancy (ticks)
system.iobus.reqLayer17.utilization               0.0                       # Layer utilization (%)
system.iobus.reqLayer18.occupancy              576485                       # Layer occupancy (ticks)
system.iobus.reqLayer18.utilization               0.0                       # Layer utilization (%)
system.iobus.reqLayer19.occupancy              571482                       # Layer occupancy (ticks)
system.iobus.reqLayer19.utilization               0.0                       # Layer utilization (%)
system.iobus.reqLayer20.occupancy              634785                       # Layer occupancy (ticks)
system.iobus.reqLayer20.utilization               0.0                       # Layer utilization (%)
system.iobus.respLayer0.occupancy              109941                       # Layer occupancy (ticks)
system.iobus.respLayer0.utilization               0.0                       # Layer utilization (%)
system.iobus.respLayer2.occupancy              741000                       # Layer occupancy (ticks)
system.iobus.respLayer2.utilization               0.0                       # Layer utilization (%)
system.iobus.respLayer4.occupancy             1060500                       # Layer occupancy (ticks)
system.iobus.respLayer4.utilization               0.0                       # Layer utilization (%)
system.iobus.respLayer6.occupancy              757500                       # Layer occupancy (ticks)
system.iobus.respLayer6.utilization               0.0                       # Layer utilization (%)
system.iobus.respLayer8.occupancy              761500                       # Layer occupancy (ticks)
system.iobus.respLayer8.utilization               0.0                       # Layer utilization (%)
system.pc.south_bridge.ide.disks.dma_read_full_pages          886                       # Number of full page size DMA reads (not PRD).
system.pc.south_bridge.ide.disks.dma_read_bytes      3629056                       # Number of bytes transfered via DMA reads (not PRD).
system.pc.south_bridge.ide.disks.dma_read_txs          886                       # Number of DMA read transactions (not PRD).
system.pc.south_bridge.ide.disks.dma_write_full_pages           37                       # Number of full page size DMA writes.
system.pc.south_bridge.ide.disks.dma_write_bytes       151552                       # Number of bytes transfered via DMA writes.
system.pc.south_bridge.ide.disks.dma_write_txs           37                       # Number of DMA write transactions.
system.ruby.clk_domain.clock                      500                       # Clock period in ticks
system.ruby.outstanding_req_hist_seqr::bucket_size            1                      
system.ruby.outstanding_req_hist_seqr::max_bucket            9                      
system.ruby.outstanding_req_hist_seqr::samples    486075141                      
system.ruby.outstanding_req_hist_seqr::mean     1.000000                      
system.ruby.outstanding_req_hist_seqr::gmean     1.000000                      
system.ruby.outstanding_req_hist_seqr::stdev     0.000236                      
system.ruby.outstanding_req_hist_seqr    |           0      0.00%      0.00% |   486075114    100.00%    100.00% |          27      0.00%    100.00% |           0      0.00%    100.00% |           0      0.00%    100.00% |           0      0.00%    100.00% |           0      0.00%    100.00% |           0      0.00%    100.00% |           0      0.00%    100.00% |           0      0.00%    100.00%
system.ruby.outstanding_req_hist_seqr::total    486075141                      
[...]
system.ruby.L1Cache_Controller.M.Load::total     43626423                      
system.ruby.L1Cache_Controller.M.Ifetch  |      162769      0.10%      0.10% |      638860      0.38%      0.48% |    51256181     30.41%     30.88% |   116499363     69.12%    100.00%
system.ruby.L1Cache_Controller.M.Ifetch::total    168557173                      
system.ruby.L1Cache_Controller.M.Store   |        4158      0.49%      0.49% |        4032      0.47%      0.96% |      816698     95.73%     96.69% |       28279      3.31%    100.00%
system.ruby.L1Cache_Controller.M.Store::total       853167                      
system.ruby.L1Cache_Controller.M.L2_Replacement |         113      0.01%      0.01% |           2      0.00%      0.01% |      845725     38.51%     38.51% |     1350411     61.49%    100.00%
system.ruby.L1Cache_Controller.M.L2_Replacement::total      2196251                      
system.ruby.L1Cache_Controller.M.L1_to_L2 |        5587      0.10%      0.10% |        5528      0.10%      0.21% |     1543200     28.93%     29.14% |     3779083     70.86%    100.00%
system.ruby.L1Cache_Controller.M.L1_to_L2::total      5333398                      
system.ruby.L1Cache_Controller.M.Trigger_L2_to_L1D |        1275      0.04%      0.04% |        1372      0.04%      0.09% |      693202     22.28%     22.36% |     2415777     77.64%    100.00%
system.ruby.L1Cache_Controller.M.Trigger_L2_to_L1D::total      3111626                      
system.ruby.L1Cache_Controller.M.Trigger_L2_to_L1I |        1924     23.86%     23.86% |        2075     25.73%     49.58% |         872     10.81%     60.40% |        3194     39.60%    100.00%
system.ruby.L1Cache_Controller.M.Trigger_L2_to_L1I::total         8065                      
system.ruby.L1Cache_Controller.M.Other_GETX |         253     14.28%     14.28% |         361     20.37%     34.65% |         572     32.28%     66.93% |         586     33.07%    100.00%
system.ruby.L1Cache_Controller.M.Other_GETX::total         1772                      
system.ruby.L1Cache_Controller.M.Other_GETS |        3498     20.14%     20.14% |        2766     15.93%     36.07% |        1858     10.70%     46.77% |        9244     53.23%    100.00%
system.ruby.L1Cache_Controller.M.Other_GETS::total        17366                      
system.ruby.L1Cache_Controller.M.Merged_GETS |          31     56.36%     56.36% |          10     18.18%     74.55% |           7     12.73%     87.27% |           7     12.73%    100.00%
system.ruby.L1Cache_Controller.M.Merged_GETS::total           55                      
system.ruby.L1Cache_Controller.MM.Load   |      586464      1.40%      1.40% |      552385      1.32%      2.71% |    14826269     35.30%     38.01% |    26034709     61.99%    100.00%
system.ruby.L1Cache_Controller.MM.Load::total     41999827                      
system.ruby.L1Cache_Controller.MM.Store  |      660288      1.75%      1.75% |      518732      1.38%      3.13% |    14265914     37.82%     40.95% |    22275007     59.05%    100.00%
system.ruby.L1Cache_Controller.MM.Store::total     37719941                      
system.ruby.L1Cache_Controller.MM.L2_Replacement |         330      0.01%      0.01% |          16      0.00%      0.01% |     1847892     49.25%     49.26% |     1903731     50.74%    100.00%
system.ruby.L1Cache_Controller.MM.L2_Replacement::total      3751969                      
system.ruby.L1Cache_Controller.MM.L1_to_L2 |       20192      0.34%      0.34% |        9510      0.16%      0.50% |     2730515     45.87%     46.36% |     3193146     53.64%    100.00%
system.ruby.L1Cache_Controller.MM.L1_to_L2::total      5953363                      
system.ruby.L1Cache_Controller.MM.Trigger_L2_to_L1D |       12629      0.58%      0.58% |        4151      0.19%      0.78% |      872554     40.30%     41.08% |     1275664     58.92%    100.00%
system.ruby.L1Cache_Controller.MM.Trigger_L2_to_L1D::total      2164998                      
system.ruby.L1Cache_Controller.MM.Other_GETX |        2691     17.77%     17.77% |        1741     11.49%     29.26% |        2006     13.24%     42.51% |        8708     57.49%    100.00%
system.ruby.L1Cache_Controller.MM.Other_GETX::total        15146                      
system.ruby.L1Cache_Controller.MM.Other_GETS |       10637     43.73%     43.73% |        4279     17.59%     61.31% |        4621     19.00%     80.31% |        4790     19.69%    100.00%
system.ruby.L1Cache_Controller.MM.Other_GETS::total        24327                      
system.ruby.L1Cache_Controller.MM.Merged_GETS |          51     48.11%     48.11% |           9      8.49%     56.60% |          21     19.81%     76.42% |          25     23.58%    100.00%
system.ruby.L1Cache_Controller.MM.Merged_GETS::total          106                      
system.ruby.L1Cache_Controller.SR.Load   |        2659      0.46%      0.46% |        2802      0.49%      0.95% |      477646     83.27%     84.22% |       90506     15.78%    100.00%
system.ruby.L1Cache_Controller.SR.Load::total       573613                      
system.ruby.L1Cache_Controller.SR.Ifetch |       14300     17.81%     17.81% |       13759     17.14%     34.95% |       29829     37.15%     72.10% |       22400     27.90%    100.00%
system.ruby.L1Cache_Controller.SR.Ifetch::total        80288                      
system.ruby.L1Cache_Controller.SR.Store  |         113     38.97%     38.97% |           6      2.07%     41.03% |         124     42.76%     83.79% |          47     16.21%    100.00%
system.ruby.L1Cache_Controller.SR.Store::total          290                      
system.ruby.L1Cache_Controller.OR.Load   |        4257     29.82%     29.82% |        1683     11.79%     41.61% |        7731     54.16%     95.77% |         604      4.23%    100.00%
system.ruby.L1Cache_Controller.OR.Load::total        14275                      
system.ruby.L1Cache_Controller.OR.Ifetch |       15769     53.28%     53.28% |        8039     27.16%     80.45% |        5442     18.39%     98.84% |         344      1.16%    100.00%
system.ruby.L1Cache_Controller.OR.Ifetch::total        29594                      
system.ruby.L1Cache_Controller.OR.Store  |           4      3.88%      3.88% |           3      2.91%      6.80% |          66     64.08%     70.87% |          30     29.13%    100.00%
system.ruby.L1Cache_Controller.OR.Store::total          103                      
system.ruby.L1Cache_Controller.MR.Load   |         884      0.03%      0.03% |        1343      0.04%      0.07% |      685801     22.17%     22.24% |     2405425     77.76%    100.00%
system.ruby.L1Cache_Controller.MR.Load::total      3093453                      
system.ruby.L1Cache_Controller.MR.Ifetch |        1924     23.86%     23.86% |        2075     25.73%     49.58% |         872     10.81%     60.40% |        3194     39.60%    100.00%
system.ruby.L1Cache_Controller.MR.Ifetch::total         8065                      
system.ruby.L1Cache_Controller.MR.Store  |         391      2.15%      2.15% |          29      0.16%      2.31% |        7401     40.73%     43.04% |       10352     56.96%    100.00%
system.ruby.L1Cache_Controller.MR.Store::total        18173                      
system.ruby.L1Cache_Controller.MMR.Load  |        7161      0.45%      0.45% |        2156      0.14%      0.59% |      694528     43.69%     44.28% |      885833     55.72%    100.00%
system.ruby.L1Cache_Controller.MMR.Load::total      1589678                      
system.ruby.L1Cache_Controller.MMR.Store |        5468      0.95%      0.95% |        1995      0.35%      1.30% |      178026     30.94%     32.24% |      389831     67.76%    100.00%
system.ruby.L1Cache_Controller.MMR.Store::total       575320                      
system.ruby.L1Cache_Controller.IM.Ack    |        6045      0.07%      0.07% |        5424      0.06%      0.13% |     3074596     35.26%     35.39% |     5634948     64.61%    100.00%
system.ruby.L1Cache_Controller.IM.Ack::total      8721013                      
system.ruby.L1Cache_Controller.IM.Data   |         795     35.96%     35.96% |         206      9.32%     45.27% |         925     41.84%     87.11% |         285     12.89%    100.00%
system.ruby.L1Cache_Controller.IM.Data::total         2211                      
system.ruby.L1Cache_Controller.IM.Exclusive_Data |        3527      0.12%      0.12% |        2273      0.08%      0.20% |     1031793     35.38%     35.57% |     1879094     64.43%    100.00%
system.ruby.L1Cache_Controller.IM.Exclusive_Data::total      2916687                      
system.ruby.L1Cache_Controller.SM.Other_GETX |           1     33.33%     33.33% |           0      0.00%     33.33% |           0      0.00%     33.33% |           2     66.67%    100.00%
system.ruby.L1Cache_Controller.SM.Other_GETX::total            3                      
system.ruby.L1Cache_Controller.SM.Ack    |        2593     34.93%     34.93% |         549      7.39%     42.32% |        3500     47.14%     89.47% |         782     10.53%    100.00%
system.ruby.L1Cache_Controller.SM.Ack::total         7424                      
system.ruby.L1Cache_Controller.SM.Data   |        1913     30.55%     30.55% |         532      8.50%     39.05% |        3062     48.91%     87.96% |         754     12.04%    100.00%
system.ruby.L1Cache_Controller.SM.Data::total         6261                      
system.ruby.L1Cache_Controller.OM.Other_GETX |           0      0.00%      0.00% |           0      0.00%      0.00% |           1    100.00%    100.00% |           0      0.00%    100.00%
system.ruby.L1Cache_Controller.OM.Other_GETX::total            1                      
system.ruby.L1Cache_Controller.OM.Ack    |         246     23.70%     23.70% |         105     10.12%     33.82% |         390     37.57%     71.39% |         297     28.61%    100.00%
system.ruby.L1Cache_Controller.OM.Ack::total         1038                      
system.ruby.L1Cache_Controller.OM.All_acks_no_sharers |          82     23.70%     23.70% |          35     10.12%     33.82% |         130     37.57%     71.39% |          99     28.61%    100.00%
system.ruby.L1Cache_Controller.OM.All_acks_no_sharers::total          346                      
system.ruby.L1Cache_Controller.ISM.Ack   |        1922     25.81%     25.81% |         755     10.14%     35.94% |        3722     49.97%     85.92% |        1049     14.08%    100.00%
system.ruby.L1Cache_Controller.ISM.Ack::total         7448                      
system.ruby.L1Cache_Controller.ISM.All_acks_no_sharers |        2708     31.96%     31.96% |         738      8.71%     40.68% |        3987     47.06%     87.74% |        1039     12.26%    100.00%
system.ruby.L1Cache_Controller.ISM.All_acks_no_sharers::total         8472                      
system.ruby.L1Cache_Controller.M_W.Load  |         503     36.27%     36.27% |         396     28.55%     64.82% |         287     20.69%     85.51% |         201     14.49%    100.00%
system.ruby.L1Cache_Controller.M_W.Load::total         1387                      
system.ruby.L1Cache_Controller.M_W.Store |         233     20.33%     20.33% |         358     31.24%     51.57% |          32      2.79%     54.36% |         523     45.64%    100.00%
system.ruby.L1Cache_Controller.M_W.Store::total         1146                      
system.ruby.L1Cache_Controller.M_W.Ack   |        4229     17.33%     17.33% |        3452     14.15%     31.48% |       11154     45.71%     77.20% |        5564     22.80%    100.00%
system.ruby.L1Cache_Controller.M_W.Ack::total        24399                      
system.ruby.L1Cache_Controller.M_W.All_acks_no_sharers |        7795      0.25%      0.25% |        7699      0.25%      0.50% |     1673968     54.19%     54.69% |     1399740     45.31%    100.00%
system.ruby.L1Cache_Controller.M_W.All_acks_no_sharers::total      3089202                      
system.ruby.L1Cache_Controller.MM_W.Load |           1      6.25%      6.25% |           3     18.75%     25.00% |           9     56.25%     81.25% |           3     18.75%    100.00%
system.ruby.L1Cache_Controller.MM_W.Load::total           16                      
system.ruby.L1Cache_Controller.MM_W.Store |        2015     19.79%     19.79% |         834      8.19%     27.99% |        6217     61.07%     89.06% |        1114     10.94%    100.00%
system.ruby.L1Cache_Controller.MM_W.Store::total        10180                      
system.ruby.L1Cache_Controller.MM_W.Ack  |        3122     19.49%     19.49% |        1179      7.36%     26.84% |       10053     62.74%     89.59% |        1668     10.41%    100.00%
system.ruby.L1Cache_Controller.MM_W.Ack::total        16022                      
system.ruby.L1Cache_Controller.MM_W.All_acks_no_sharers |        3760      0.13%      0.13% |        2631      0.09%      0.22% |     1031825     35.36%     35.58% |     1879617     64.42%    100.00%
system.ruby.L1Cache_Controller.MM_W.All_acks_no_sharers::total      2917833                      
system.ruby.L1Cache_Controller.IS.Other_GETX |           0      0.00%      0.00% |           0      0.00%      0.00% |           1     50.00%     50.00% |           1     50.00%    100.00%
system.ruby.L1Cache_Controller.IS.Other_GETX::total            2                      
system.ruby.L1Cache_Controller.IS.Other_GETS |           1    100.00%    100.00% |           0      0.00%    100.00% |           0      0.00%    100.00% |           0      0.00%    100.00%
system.ruby.L1Cache_Controller.IS.Other_GETS::total            1                      
system.ruby.L1Cache_Controller.IS.Ack    |       18730      0.20%      0.20% |       19969      0.21%      0.41% |     5269076     55.46%     55.87% |     4192345     44.13%    100.00%
system.ruby.L1Cache_Controller.IS.Ack::total      9500120                      
system.ruby.L1Cache_Controller.IS.Shared_Ack |        1575      7.25%      7.25% |         697      3.21%     10.46% |        9819     45.21%     55.67% |        9627     44.33%    100.00%
system.ruby.L1Cache_Controller.IS.Shared_Ack::total        21718                      
system.ruby.L1Cache_Controller.IS.Data   |         561     13.09%     13.09% |          55      1.28%     14.37% |        3011     70.24%     84.60% |         660     15.40%    100.00%
system.ruby.L1Cache_Controller.IS.Data::total         4287                      
system.ruby.L1Cache_Controller.IS.Shared_Data |        4221      1.79%      1.79% |        4027      1.71%      3.50% |      213258     90.51%     94.01% |       14102      5.99%    100.00%
system.ruby.L1Cache_Controller.IS.Shared_Data::total       235608                      
system.ruby.L1Cache_Controller.IS.Exclusive_Data |        8028      0.26%      0.26% |        8057      0.26%      0.52% |     1674000     54.17%     54.69% |     1400263     45.31%    100.00%
system.ruby.L1Cache_Controller.IS.Exclusive_Data::total      3090348                      
system.ruby.L1Cache_Controller.SS.Load   |         405      0.52%      0.52% |         304      0.39%      0.90% |       77035     98.13%     99.03% |         762      0.97%    100.00%
system.ruby.L1Cache_Controller.SS.Load::total        78506                      
system.ruby.L1Cache_Controller.SS.Ifetch |        1344      7.27%      7.27% |         895      4.84%     12.11% |        6895     37.29%     49.41% |        9354     50.59%    100.00%
system.ruby.L1Cache_Controller.SS.Ifetch::total        18488                      
system.ruby.L1Cache_Controller.SS.Store  |          49     56.32%     56.32% |          10     11.49%     67.82% |          15     17.24%     85.06% |          13     14.94%    100.00%
system.ruby.L1Cache_Controller.SS.Store::total           87                      
system.ruby.L1Cache_Controller.SS.Ack    |        3324      2.05%      2.05% |        3533      2.17%      4.22% |      151555     93.28%     97.51% |        4053      2.49%    100.00%
system.ruby.L1Cache_Controller.SS.Ack::total       162465                      
system.ruby.L1Cache_Controller.SS.Shared_Ack |         864      4.20%      4.20% |         576      2.80%      7.00% |        6474     31.46%     38.46% |       12665     61.54%    100.00%
system.ruby.L1Cache_Controller.SS.Shared_Ack::total        20579                      
system.ruby.L1Cache_Controller.SS.All_acks |        4758      1.99%      1.99% |        4081      1.70%      3.69% |      215826     90.14%     93.83% |       14761      6.17%    100.00%
system.ruby.L1Cache_Controller.SS.All_acks::total       239426                      
system.ruby.L1Cache_Controller.SS.All_acks_no_sharers |          24      5.12%      5.12% |           1      0.21%      5.33% |         443     94.46%     99.79% |           1      0.21%    100.00%
system.ruby.L1Cache_Controller.SS.All_acks_no_sharers::total          469                      
system.ruby.L1Cache_Controller.OI.Load   |           2    100.00%    100.00% |           0      0.00%    100.00% |           0      0.00%    100.00% |           0      0.00%    100.00%
system.ruby.L1Cache_Controller.OI.Load::total            2                      
system.ruby.L1Cache_Controller.OI.Store  |           0      0.00%      0.00% |           0      0.00%      0.00% |           1    100.00%    100.00% |           0      0.00%    100.00%
system.ruby.L1Cache_Controller.OI.Store::total            1                      
system.ruby.L1Cache_Controller.OI.Writeback_Ack |         435     17.41%     17.41% |           7      0.28%     17.69% |        1224     48.98%     66.67% |         833     33.33%    100.00%
system.ruby.L1Cache_Controller.OI.Writeback_Ack::total         2499                      
system.ruby.L1Cache_Controller.MI.Load   |           5      0.04%      0.04% |           0      0.00%      0.04% |        3141     27.28%     27.32% |        8369     72.68%    100.00%
system.ruby.L1Cache_Controller.MI.Load::total        11515                      
system.ruby.L1Cache_Controller.MI.Ifetch |           0      0.00%      0.00% |           0      0.00%      0.00% |           0      0.00%      0.00% |          25    100.00%    100.00%
system.ruby.L1Cache_Controller.MI.Ifetch::total           25                      
system.ruby.L1Cache_Controller.MI.Store  |           1      0.02%      0.02% |           0      0.00%      0.02% |        1668     36.55%     36.57% |        2895     63.43%    100.00%
system.ruby.L1Cache_Controller.MI.Store::total         4564                      
system.ruby.L1Cache_Controller.MI.Writeback_Ack |         443      0.01%      0.01% |          18      0.00%      0.01% |     2693617     45.28%     45.29% |     3254142     54.71%    100.00%
system.ruby.L1Cache_Controller.MI.Writeback_Ack::total      5948220                      
system.ruby.L1Cache_Controller.ST.Complete_L2_to_L1 |       17072      2.61%      2.61% |       16567      2.53%      5.14% |      507599     77.59%     82.73% |      112953     17.27%    100.00%
system.ruby.L1Cache_Controller.ST.Complete_L2_to_L1::total       654191                      
system.ruby.L1Cache_Controller.OT.Complete_L2_to_L1 |       20030     45.55%     45.55% |        9725     22.12%     67.67% |       13239     30.11%     97.78% |         978      2.22%    100.00%
system.ruby.L1Cache_Controller.OT.Complete_L2_to_L1::total        43972                      
system.ruby.L1Cache_Controller.MT.Complete_L2_to_L1 |        3199      0.10%      0.10% |        3447      0.11%      0.21% |      694074     22.25%     22.46% |     2418971     77.54%    100.00%
system.ruby.L1Cache_Controller.MT.Complete_L2_to_L1::total      3119691                      
system.ruby.L1Cache_Controller.MMT.Complete_L2_to_L1 |       12629      0.58%      0.58% |        4151      0.19%      0.78% |      872554     40.30%     41.08% |     1275664     58.92%    100.00%
system.ruby.L1Cache_Controller.MMT.Complete_L2_to_L1::total      2164998                      

---------- End Simulation Statistics   ----------
