
---------- Begin Simulation Statistics ----------
sim_seconds                                  1.923300                       # Number of seconds simulated
sim_ticks                                1923299737500                       # Number of ticks simulated
final_tick                               54152176408501                       # Number of ticks from beginning of simulation (restored from checkpoints and never reset)
sim_freq                                 1000000000000                       # Frequency of simulated ticks
host_inst_rate                                 102949                       # Simulator instruction rate (inst/s)
host_op_rate                                   153443                       # Simulator op (including micro ops) rate (op/s)
host_tick_rate                              272967543                       # Simulator tick rate (ticks/s)
host_mem_usage                                1814824                       # Number of bytes of host memory used
host_seconds                                  7045.89                       # Real time elapsed on the host
sim_insts                                   725366840                       # Number of instructions simulated
sim_ops                                    1081139572                       # Number of ops (including micro ops) simulated
system.voltage_domain.voltage                       1                       # Voltage in Volts
system.clk_domain.clock                          1000                       # Clock period in ticks
system.mem_ctrls0.bytes_read::ruby.dir_cntrl0    189907904                       # Number of bytes read from this memory
system.mem_ctrls0.bytes_read::total         189907904                       # Number of bytes read from this memory
system.mem_ctrls0.bytes_written::ruby.dir_cntrl0     86805952                       # Number of bytes written to this memory
system.mem_ctrls0.bytes_written::total       86805952                       # Number of bytes written to this memory
system.mem_ctrls0.num_reads::ruby.dir_cntrl0      2967311                       # Number of read requests responded to by this memory
system.mem_ctrls0.num_reads::total            2967311                       # Number of read requests responded to by this memory
system.mem_ctrls0.num_writes::ruby.dir_cntrl0      1356343                       # Number of write requests responded to by this memory
system.mem_ctrls0.num_writes::total           1356343                       # Number of write requests responded to by this memory
system.mem_ctrls0.bw_read::ruby.dir_cntrl0     98740670                       # Total read bandwidth from this memory (bytes/s)
system.mem_ctrls0.bw_read::total             98740670                       # Total read bandwidth from this memory (bytes/s)
system.mem_ctrls0.bw_write::ruby.dir_cntrl0     45133866                       # Write bandwidth from this memory (bytes/s)
system.mem_ctrls0.bw_write::total            45133866                       # Write bandwidth from this memory (bytes/s)
system.mem_ctrls0.bw_total::ruby.dir_cntrl0    143874535                       # Total bandwidth to/from this memory (bytes/s)
system.mem_ctrls0.bw_total::total           143874535                       # Total bandwidth to/from this memory (bytes/s)
system.mem_ctrls0.readReqs                    2967311                       # Number of read requests accepted
system.mem_ctrls0.writeReqs                   1356343                       # Number of write requests accepted
system.mem_ctrls0.readBursts                  2967311                       # Number of DRAM read bursts, including those serviced by the write queue
system.mem_ctrls0.writeBursts                 1356343                       # Number of DRAM write bursts, including those merged in the write queue
system.mem_ctrls0.bytesReadDRAM             189708416                       # Total number of bytes read from DRAM
system.mem_ctrls0.bytesReadWrQ                 199488                       # Total number of bytes read from write queue
system.mem_ctrls0.bytesWritten               86805440                       # Total number of bytes written to DRAM
system.mem_ctrls0.bytesReadSys              189907904                       # Total read bytes from the system interface side
system.mem_ctrls0.bytesWrittenSys            86805952                       # Total written bytes from the system interface side
system.mem_ctrls0.servicedByWrQ                  3117                       # Number of DRAM read bursts serviced by the write queue
system.mem_ctrls0.mergedWrBursts                   10                       # Number of DRAM write bursts merged with an existing one
system.mem_ctrls0.neitherReadNorWriteReqs            0                       # Number of requests that are neither read nor write
system.mem_ctrls0.perBankRdBursts::0           191907                       # Per bank write bursts
system.mem_ctrls0.perBankRdBursts::1           186093                       # Per bank write bursts
system.mem_ctrls0.perBankRdBursts::2           187177                       # Per bank write bursts
system.mem_ctrls0.perBankRdBursts::3           190616                       # Per bank write bursts
system.mem_ctrls0.perBankRdBursts::4           186070                       # Per bank write bursts
system.mem_ctrls0.perBankRdBursts::5           182494                       # Per bank write bursts
system.mem_ctrls0.perBankRdBursts::6           182733                       # Per bank write bursts
system.mem_ctrls0.perBankRdBursts::7           185039                       # Per bank write bursts
system.mem_ctrls0.perBankRdBursts::8           184154                       # Per bank write bursts
system.mem_ctrls0.perBankRdBursts::9           182235                       # Per bank write bursts
system.mem_ctrls0.perBankRdBursts::10          184152                       # Per bank write bursts
system.mem_ctrls0.perBankRdBursts::11          183118                       # Per bank write bursts
system.mem_ctrls0.perBankRdBursts::12          183913                       # Per bank write bursts
system.mem_ctrls0.perBankRdBursts::13          184078                       # Per bank write bursts
system.mem_ctrls0.perBankRdBursts::14          184455                       # Per bank write bursts
system.mem_ctrls0.perBankRdBursts::15          185960                       # Per bank write bursts
system.mem_ctrls0.perBankWrBursts::0            91235                       # Per bank write bursts
system.mem_ctrls0.perBankWrBursts::1            85993                       # Per bank write bursts
system.mem_ctrls0.perBankWrBursts::2            85395                       # Per bank write bursts
system.mem_ctrls0.perBankWrBursts::3            87299                       # Per bank write bursts
system.mem_ctrls0.perBankWrBursts::4            85253                       # Per bank write bursts
system.mem_ctrls0.perBankWrBursts::5            83131                       # Per bank write bursts
system.mem_ctrls0.perBankWrBursts::6            82539                       # Per bank write bursts
system.mem_ctrls0.perBankWrBursts::7            82901                       # Per bank write bursts
system.mem_ctrls0.perBankWrBursts::8            83910                       # Per bank write bursts
system.mem_ctrls0.perBankWrBursts::9            83066                       # Per bank write bursts
system.mem_ctrls0.perBankWrBursts::10           83501                       # Per bank write bursts
system.mem_ctrls0.perBankWrBursts::11           83402                       # Per bank write bursts
system.mem_ctrls0.perBankWrBursts::12           84524                       # Per bank write bursts
system.mem_ctrls0.perBankWrBursts::13           83791                       # Per bank write bursts
system.mem_ctrls0.perBankWrBursts::14           85011                       # Per bank write bursts
system.mem_ctrls0.perBankWrBursts::15           85384                       # Per bank write bursts
system.mem_ctrls0.numRdRetry                        0                       # Number of times read queue was full causing retry
system.mem_ctrls0.numWrRetry                        0                       # Number of times write queue was full causing retry
system.mem_ctrls0.totGap                 1923299620500                       # Total gap between requests
system.mem_ctrls0.readPktSize::0                    0                       # Read request sizes (log2)
system.mem_ctrls0.readPktSize::1                    0                       # Read request sizes (log2)
system.mem_ctrls0.readPktSize::2                    0                       # Read request sizes (log2)
system.mem_ctrls0.readPktSize::3                    0                       # Read request sizes (log2)
system.mem_ctrls0.readPktSize::4                    0                       # Read request sizes (log2)
system.mem_ctrls0.readPktSize::5                    0                       # Read request sizes (log2)
system.mem_ctrls0.readPktSize::6              2967311                       # Read request sizes (log2)
system.mem_ctrls0.writePktSize::0                   0                       # Write request sizes (log2)
system.mem_ctrls0.writePktSize::1                   0                       # Write request sizes (log2)
system.mem_ctrls0.writePktSize::2                   0                       # Write request sizes (log2)
system.mem_ctrls0.writePktSize::3                   0                       # Write request sizes (log2)
system.mem_ctrls0.writePktSize::4                   0                       # Write request sizes (log2)
system.mem_ctrls0.writePktSize::5                   0                       # Write request sizes (log2)
system.mem_ctrls0.writePktSize::6             1356343                       # Write request sizes (log2)
system.mem_ctrls0.rdQLenPdf::0                2958689                       # What read queue length does an incoming req see
system.mem_ctrls0.rdQLenPdf::1                   5502                       # What read queue length does an incoming req see
system.mem_ctrls0.rdQLenPdf::2                      3                       # What read queue length does an incoming req see
system.mem_ctrls0.rdQLenPdf::3                      0                       # What read queue length does an incoming req see
system.mem_ctrls0.rdQLenPdf::4                      0                       # What read queue length does an incoming req see
system.mem_ctrls0.rdQLenPdf::5                      0                       # What read queue length does an incoming req see
system.mem_ctrls0.rdQLenPdf::6                      0                       # What read queue length does an incoming req see
system.mem_ctrls0.rdQLenPdf::7                      0                       # What read queue length does an incoming req see
system.mem_ctrls0.rdQLenPdf::8                      0                       # What read queue length does an incoming req see
system.mem_ctrls0.rdQLenPdf::9                      0                       # What read queue length does an incoming req see
system.mem_ctrls0.rdQLenPdf::10                     0                       # What read queue length does an incoming req see
system.mem_ctrls0.rdQLenPdf::11                     0                       # What read queue length does an incoming req see
system.mem_ctrls0.rdQLenPdf::12                     0                       # What read queue length does an incoming req see
system.mem_ctrls0.rdQLenPdf::13                     0                       # What read queue length does an incoming req see
system.mem_ctrls0.rdQLenPdf::14                     0                       # What read queue length does an incoming req see
system.mem_ctrls0.rdQLenPdf::15                     0                       # What read queue length does an incoming req see
system.mem_ctrls0.rdQLenPdf::16                     0                       # What read queue length does an incoming req see
system.mem_ctrls0.rdQLenPdf::17                     0                       # What read queue length does an incoming req see
system.mem_ctrls0.rdQLenPdf::18                     0                       # What read queue length does an incoming req see
system.mem_ctrls0.rdQLenPdf::19                     0                       # What read queue length does an incoming req see
system.mem_ctrls0.rdQLenPdf::20                     0                       # What read queue length does an incoming req see
system.mem_ctrls0.rdQLenPdf::21                     0                       # What read queue length does an incoming req see
system.mem_ctrls0.rdQLenPdf::22                     0                       # What read queue length does an incoming req see
system.mem_ctrls0.rdQLenPdf::23                     0                       # What read queue length does an incoming req see
system.mem_ctrls0.rdQLenPdf::24                     0                       # What read queue length does an incoming req see
system.mem_ctrls0.rdQLenPdf::25                     0                       # What read queue length does an incoming req see
system.mem_ctrls0.rdQLenPdf::26                     0                       # What read queue length does an incoming req see
system.mem_ctrls0.rdQLenPdf::27                     0                       # What read queue length does an incoming req see
system.mem_ctrls0.rdQLenPdf::28                     0                       # What read queue length does an incoming req see
system.mem_ctrls0.rdQLenPdf::29                     0                       # What read queue length does an incoming req see
system.mem_ctrls0.rdQLenPdf::30                     0                       # What read queue length does an incoming req see
system.mem_ctrls0.rdQLenPdf::31                     0                       # What read queue length does an incoming req see
system.mem_ctrls0.wrQLenPdf::0                      0                       # What write queue length does an incoming req see
system.mem_ctrls0.wrQLenPdf::1                      0                       # What write queue length does an incoming req see
system.mem_ctrls0.wrQLenPdf::2                      0                       # What write queue length does an incoming req see
system.mem_ctrls0.wrQLenPdf::3                      0                       # What write queue length does an incoming req see
system.mem_ctrls0.wrQLenPdf::4                      0                       # What write queue length does an incoming req see
system.mem_ctrls0.wrQLenPdf::5                      0                       # What write queue length does an incoming req see
system.mem_ctrls0.wrQLenPdf::6                      0                       # What write queue length does an incoming req see
system.mem_ctrls0.wrQLenPdf::7                      0                       # What write queue length does an incoming req see
system.mem_ctrls0.wrQLenPdf::8                      0                       # What write queue length does an incoming req see
system.mem_ctrls0.wrQLenPdf::9                      0                       # What write queue length does an incoming req see
system.mem_ctrls0.wrQLenPdf::10                     0                       # What write queue length does an incoming req see
system.mem_ctrls0.wrQLenPdf::11                     0                       # What write queue length does an incoming req see
system.mem_ctrls0.wrQLenPdf::12                     0                       # What write queue length does an incoming req see
system.mem_ctrls0.wrQLenPdf::13                     0                       # What write queue length does an incoming req see
system.mem_ctrls0.wrQLenPdf::14                     0                       # What write queue length does an incoming req see
system.mem_ctrls0.wrQLenPdf::15                  2035                       # What write queue length does an incoming req see
system.mem_ctrls0.wrQLenPdf::16                  2167                       # What write queue length does an incoming req see
system.mem_ctrls0.wrQLenPdf::17                 83962                       # What write queue length does an incoming req see
system.mem_ctrls0.wrQLenPdf::18                 84572                       # What write queue length does an incoming req see
system.mem_ctrls0.wrQLenPdf::19                 84573                       # What write queue length does an incoming req see
system.mem_ctrls0.wrQLenPdf::20                 84575                       # What write queue length does an incoming req see
system.mem_ctrls0.wrQLenPdf::21                 84565                       # What write queue length does an incoming req see
system.mem_ctrls0.wrQLenPdf::22                 84565                       # What write queue length does an incoming req see
system.mem_ctrls0.wrQLenPdf::23                 84571                       # What write queue length does an incoming req see
system.mem_ctrls0.wrQLenPdf::24                 84550                       # What write queue length does an incoming req see
system.mem_ctrls0.wrQLenPdf::25                 84542                       # What write queue length does an incoming req see
system.mem_ctrls0.wrQLenPdf::26                 84534                       # What write queue length does an incoming req see
system.mem_ctrls0.wrQLenPdf::27                 84533                       # What write queue length does an incoming req see
system.mem_ctrls0.wrQLenPdf::28                 84524                       # What write queue length does an incoming req see
system.mem_ctrls0.wrQLenPdf::29                 84519                       # What write queue length does an incoming req see
system.mem_ctrls0.wrQLenPdf::30                 84520                       # What write queue length does an incoming req see
system.mem_ctrls0.wrQLenPdf::31                 84513                       # What write queue length does an incoming req see
system.mem_ctrls0.wrQLenPdf::32                 84508                       # What write queue length does an incoming req see
system.mem_ctrls0.wrQLenPdf::33                     5                       # What write queue length does an incoming req see
system.mem_ctrls0.wrQLenPdf::34                     0                       # What write queue length does an incoming req see
system.mem_ctrls0.wrQLenPdf::35                     0                       # What write queue length does an incoming req see
system.mem_ctrls0.wrQLenPdf::36                     0                       # What write queue length does an incoming req see
system.mem_ctrls0.wrQLenPdf::37                     0                       # What write queue length does an incoming req see
system.mem_ctrls0.wrQLenPdf::38                     0                       # What write queue length does an incoming req see
system.mem_ctrls0.wrQLenPdf::39                     0                       # What write queue length does an incoming req see
system.mem_ctrls0.wrQLenPdf::40                     0                       # What write queue length does an incoming req see
system.mem_ctrls0.wrQLenPdf::41                     0                       # What write queue length does an incoming req see
system.mem_ctrls0.wrQLenPdf::42                     0                       # What write queue length does an incoming req see
system.mem_ctrls0.wrQLenPdf::43                     0                       # What write queue length does an incoming req see
system.mem_ctrls0.wrQLenPdf::44                     0                       # What write queue length does an incoming req see
system.mem_ctrls0.wrQLenPdf::45                     0                       # What write queue length does an incoming req see
system.mem_ctrls0.wrQLenPdf::46                     0                       # What write queue length does an incoming req see
system.mem_ctrls0.wrQLenPdf::47                     0                       # What write queue length does an incoming req see
system.mem_ctrls0.wrQLenPdf::48                     0                       # What write queue length does an incoming req see
system.mem_ctrls0.wrQLenPdf::49                     0                       # What write queue length does an incoming req see
system.mem_ctrls0.wrQLenPdf::50                     0                       # What write queue length does an incoming req see
system.mem_ctrls0.wrQLenPdf::51                     0                       # What write queue length does an incoming req see
system.mem_ctrls0.wrQLenPdf::52                     0                       # What write queue length does an incoming req see
system.mem_ctrls0.wrQLenPdf::53                     0                       # What write queue length does an incoming req see
system.mem_ctrls0.wrQLenPdf::54                     0                       # What write queue length does an incoming req see
system.mem_ctrls0.wrQLenPdf::55                     0                       # What write queue length does an incoming req see
system.mem_ctrls0.wrQLenPdf::56                     0                       # What write queue length does an incoming req see
system.mem_ctrls0.wrQLenPdf::57                     0                       # What write queue length does an incoming req see
system.mem_ctrls0.wrQLenPdf::58                     0                       # What write queue length does an incoming req see
system.mem_ctrls0.wrQLenPdf::59                     0                       # What write queue length does an incoming req see
system.mem_ctrls0.wrQLenPdf::60                     0                       # What write queue length does an incoming req see
system.mem_ctrls0.wrQLenPdf::61                     0                       # What write queue length does an incoming req see
system.mem_ctrls0.wrQLenPdf::62                     0                       # What write queue length does an incoming req see
system.mem_ctrls0.wrQLenPdf::63                     0                       # What write queue length does an incoming req see
system.mem_ctrls0.bytesPerActivate::samples      1972963                       # Bytes accessed per row activation
system.mem_ctrls0.bytesPerActivate::mean   140.151372                       # Bytes accessed per row activation
system.mem_ctrls0.bytesPerActivate::gmean    90.426284                       # Bytes accessed per row activation
system.mem_ctrls0.bytesPerActivate::stdev   201.919604                       # Bytes accessed per row activation
system.mem_ctrls0.bytesPerActivate::0-127      1557209     78.93%     78.93% # Bytes accessed per row activation
system.mem_ctrls0.bytesPerActivate::128-255       147747      7.49%     86.42% # Bytes accessed per row activation
system.mem_ctrls0.bytesPerActivate::256-383        70664      3.58%     90.00% # Bytes accessed per row activation
system.mem_ctrls0.bytesPerActivate::384-511        58643      2.97%     92.97% # Bytes accessed per row activation
system.mem_ctrls0.bytesPerActivate::512-639        40416      2.05%     95.02% # Bytes accessed per row activation
system.mem_ctrls0.bytesPerActivate::640-767        18491      0.94%     95.96% # Bytes accessed per row activation
system.mem_ctrls0.bytesPerActivate::768-895        19445      0.99%     96.94% # Bytes accessed per row activation
system.mem_ctrls0.bytesPerActivate::896-1023        11457      0.58%     97.52% # Bytes accessed per row activation
system.mem_ctrls0.bytesPerActivate::1024-1151        48891      2.48%    100.00% # Bytes accessed per row activation
system.mem_ctrls0.bytesPerActivate::total      1972963                       # Bytes accessed per row activation
system.mem_ctrls0.rdPerTurnAround::samples        84505                       # Reads before turning the bus around for writes
system.mem_ctrls0.rdPerTurnAround::mean     35.168487                       # Reads before turning the bus around for writes
system.mem_ctrls0.rdPerTurnAround::gmean    24.830236                       # Reads before turning the bus around for writes
system.mem_ctrls0.rdPerTurnAround::stdev   181.653212                       # Reads before turning the bus around for writes
system.mem_ctrls0.rdPerTurnAround::0-255        84162     99.59%     99.59% # Reads before turning the bus around for writes
system.mem_ctrls0.rdPerTurnAround::256-511           52      0.06%     99.66% # Reads before turning the bus around for writes
system.mem_ctrls0.rdPerTurnAround::512-767           24      0.03%     99.68% # Reads before turning the bus around for writes
system.mem_ctrls0.rdPerTurnAround::768-1023           29      0.03%     99.72% # Reads before turning the bus around for writes
system.mem_ctrls0.rdPerTurnAround::1024-1279           22      0.03%     99.74% # Reads before turning the bus around for writes
system.mem_ctrls0.rdPerTurnAround::1280-1535           10      0.01%     99.76% # Reads before turning the bus around for writes
system.mem_ctrls0.rdPerTurnAround::1536-1791           21      0.02%     99.78% # Reads before turning the bus around for writes
system.mem_ctrls0.rdPerTurnAround::1792-2047           29      0.03%     99.82% # Reads before turning the bus around for writes
system.mem_ctrls0.rdPerTurnAround::2048-2303           28      0.03%     99.85% # Reads before turning the bus around for writes
system.mem_ctrls0.rdPerTurnAround::2304-2559           12      0.01%     99.86% # Reads before turning the bus around for writes
system.mem_ctrls0.rdPerTurnAround::2560-2815           12      0.01%     99.88% # Reads before turning the bus around for writes
system.mem_ctrls0.rdPerTurnAround::2816-3071           18      0.02%     99.90% # Reads before turning the bus around for writes
system.mem_ctrls0.rdPerTurnAround::3072-3327            9      0.01%     99.91% # Reads before turning the bus around for writes
system.mem_ctrls0.rdPerTurnAround::3328-3583           13      0.02%     99.92% # Reads before turning the bus around for writes
system.mem_ctrls0.rdPerTurnAround::3584-3839            7      0.01%     99.93% # Reads before turning the bus around for writes
system.mem_ctrls0.rdPerTurnAround::3840-4095           11      0.01%     99.95% # Reads before turning the bus around for writes
system.mem_ctrls0.rdPerTurnAround::4096-4351            6      0.01%     99.95% # Reads before turning the bus around for writes
system.mem_ctrls0.rdPerTurnAround::4352-4607            2      0.00%     99.96% # Reads before turning the bus around for writes
system.mem_ctrls0.rdPerTurnAround::4608-4863            2      0.00%     99.96% # Reads before turning the bus around for writes
system.mem_ctrls0.rdPerTurnAround::4864-5119            2      0.00%     99.96% # Reads before turning the bus around for writes
system.mem_ctrls0.rdPerTurnAround::5120-5375            7      0.01%     99.97% # Reads before turning the bus around for writes
system.mem_ctrls0.rdPerTurnAround::5376-5631            3      0.00%     99.97% # Reads before turning the bus around for writes
system.mem_ctrls0.rdPerTurnAround::5632-5887            2      0.00%     99.97% # Reads before turning the bus around for writes
system.mem_ctrls0.rdPerTurnAround::5888-6143            7      0.01%     99.98% # Reads before turning the bus around for writes
system.mem_ctrls0.rdPerTurnAround::6144-6399            6      0.01%     99.99% # Reads before turning the bus around for writes
system.mem_ctrls0.rdPerTurnAround::6400-6655            1      0.00%     99.99% # Reads before turning the bus around for writes
system.mem_ctrls0.rdPerTurnAround::7424-7679            2      0.00%     99.99% # Reads before turning the bus around for writes
system.mem_ctrls0.rdPerTurnAround::7680-7935            4      0.00%    100.00% # Reads before turning the bus around for writes
system.mem_ctrls0.rdPerTurnAround::7936-8191            2      0.00%    100.00% # Reads before turning the bus around for writes
system.mem_ctrls0.rdPerTurnAround::total        84505                       # Reads before turning the bus around for writes
system.mem_ctrls0.wrPerTurnAround::samples        84505                       # Writes before turning the bus around for reads
system.mem_ctrls0.wrPerTurnAround::mean     16.050352                       # Writes before turning the bus around for reads
system.mem_ctrls0.wrPerTurnAround::gmean    16.047528                       # Writes before turning the bus around for reads
system.mem_ctrls0.wrPerTurnAround::stdev     0.312621                       # Writes before turning the bus around for reads
system.mem_ctrls0.wrPerTurnAround::16           82346     97.45%     97.45% # Writes before turning the bus around for reads
system.mem_ctrls0.wrPerTurnAround::17              76      0.09%     97.54% # Writes before turning the bus around for reads
system.mem_ctrls0.wrPerTurnAround::18            2070      2.45%     99.98% # Writes before turning the bus around for reads
system.mem_ctrls0.wrPerTurnAround::19              13      0.02%    100.00% # Writes before turning the bus around for reads
system.mem_ctrls0.wrPerTurnAround::total        84505                       # Writes before turning the bus around for reads
system.mem_ctrls0.totQLat                 49125795177                       # Total ticks spent queuing
system.mem_ctrls0.totMemAccLat           104704432677                       # Total ticks spent from burst creation until serviced by the DRAM
system.mem_ctrls0.totBusLat               14820970000                       # Total ticks spent in databus transfers
system.mem_ctrls0.avgQLat                    16573.07                       # Average queueing delay per DRAM burst
system.mem_ctrls0.avgBusLat                   5000.00                       # Average bus latency per DRAM burst
system.mem_ctrls0.avgMemAccLat               35323.07                       # Average memory access latency per DRAM burst
system.mem_ctrls0.avgRdBW                       98.64                       # Average DRAM read bandwidth in MiByte/s
system.mem_ctrls0.avgWrBW                       45.13                       # Average achieved write bandwidth in MiByte/s
system.mem_ctrls0.avgRdBWSys                    98.74                       # Average system read bandwidth in MiByte/s
system.mem_ctrls0.avgWrBWSys                    45.13                       # Average system write bandwidth in MiByte/s
system.mem_ctrls0.peakBW                     12800.00                       # Theoretical peak bandwidth in MiByte/s
system.mem_ctrls0.busUtil                        1.12                       # Data bus utilization in percentage
system.mem_ctrls0.busUtilRead                    0.77                       # Data bus utilization in percentage for reads
system.mem_ctrls0.busUtilWrite                   0.35                       # Data bus utilization in percentage for writes
system.mem_ctrls0.avgRdQLen                      1.00                       # Average read queue length when enqueuing
system.mem_ctrls0.avgWrQLen                     25.53                       # Average write queue length when enqueuing
system.mem_ctrls0.readRowHits                 1813631                       # Number of row buffer hits during reads
system.mem_ctrls0.writeRowHits                 533928                       # Number of row buffer hits during writes
system.mem_ctrls0.readRowHitRate                61.18                       # Row buffer hit rate for reads
system.mem_ctrls0.writeRowHitRate               39.37                       # Row buffer hit rate for writes
system.mem_ctrls0.avgGap                    444831.99                       # Average gap between requests
system.mem_ctrls0.pageHitRate                   54.34                       # Row buffer hit rate, read and write combined
system.mem_ctrls0_0.actEnergy              7539724080                       # Energy for activate commands per rank (pJ)
system.mem_ctrls0_0.preEnergy              4113936750                       # Energy for precharge commands per rank (pJ)
system.mem_ctrls0_0.readEnergy            11660750400                       # Energy for read commands per rank (pJ)
system.mem_ctrls0_0.writeEnergy            4430622240                       # Energy for write commands per rank (pJ)
system.mem_ctrls0_0.refreshEnergy        125865040080                       # Energy for refresh commands per rank (pJ)
system.mem_ctrls0_0.actBackEnergy        624437164575                       # Energy for active background per rank (pJ)
system.mem_ctrls0_0.preBackEnergy        608473680000                       # Energy for precharge background per rank (pJ)
system.mem_ctrls0_0.totalEnergy          1386520918125                       # Total energy per rank (pJ)
system.mem_ctrls0_0.averagePower           719.507133                       # Core power per rank (mW)
system.mem_ctrls0_0.memoryStateTime::IDLE 1005935392499                       # Time in different power states
system.mem_ctrls0_0.memoryStateTime::REF  64223380000                       # Time in different power states
system.mem_ctrls0_0.memoryStateTime::PRE_PDN            0                       # Time in different power states
system.mem_ctrls0_0.memoryStateTime::ACT 853141097501                       # Time in different power states
system.mem_ctrls0_0.memoryStateTime::ACT_PDN            0                       # Time in different power states
system.mem_ctrls0_1.actEnergy              7394511600                       # Energy for activate commands per rank (pJ)
system.mem_ctrls0_1.preEnergy              4034703750                       # Energy for precharge commands per rank (pJ)
system.mem_ctrls0_1.readEnergy            11520171000                       # Energy for read commands per rank (pJ)
system.mem_ctrls0_1.writeEnergy            4358324880                       # Energy for write commands per rank (pJ)
system.mem_ctrls0_1.refreshEnergy        125865040080                       # Energy for refresh commands per rank (pJ)
system.mem_ctrls0_1.actBackEnergy        623213896410                       # Energy for active background per rank (pJ)
system.mem_ctrls0_1.preBackEnergy        609546722250                       # Energy for precharge background per rank (pJ)
system.mem_ctrls0_1.totalEnergy          1385933369970                       # Total energy per rank (pJ)
system.mem_ctrls0_1.averagePower           719.202236                       # Core power per rank (mW)
system.mem_ctrls0_1.memoryStateTime::IDLE 1008422115250                       # Time in different power states
system.mem_ctrls0_1.memoryStateTime::REF  64223380000                       # Time in different power states
system.mem_ctrls0_1.memoryStateTime::PRE_PDN            0                       # Time in different power states
system.mem_ctrls0_1.memoryStateTime::ACT 850661031750                       # Time in different power states
system.mem_ctrls0_1.memoryStateTime::ACT_PDN            0                       # Time in different power states
system.mem_ctrls1.bytes_read::ruby.dir_cntrl1    189547136                       # Number of bytes read from this memory
system.mem_ctrls1.bytes_read::total         189547136                       # Number of bytes read from this memory
system.mem_ctrls1.bytes_written::ruby.dir_cntrl1     86672064                       # Number of bytes written to this memory
system.mem_ctrls1.bytes_written::total       86672064                       # Number of bytes written to this memory
system.mem_ctrls1.num_reads::ruby.dir_cntrl1      2961674                       # Number of read requests responded to by this memory
system.mem_ctrls1.num_reads::total            2961674                       # Number of read requests responded to by this memory
system.mem_ctrls1.num_writes::ruby.dir_cntrl1      1354251                       # Number of write requests responded to by this memory
system.mem_ctrls1.num_writes::total           1354251                       # Number of write requests responded to by this memory
system.mem_ctrls1.bw_read::ruby.dir_cntrl1     98553092                       # Total read bandwidth from this memory (bytes/s)
system.mem_ctrls1.bw_read::total             98553092                       # Total read bandwidth from this memory (bytes/s)
system.mem_ctrls1.bw_write::ruby.dir_cntrl1     45064252                       # Write bandwidth from this memory (bytes/s)
system.mem_ctrls1.bw_write::total            45064252                       # Write bandwidth from this memory (bytes/s)
system.mem_ctrls1.bw_total::ruby.dir_cntrl1    143617344                       # Total bandwidth to/from this memory (bytes/s)
system.mem_ctrls1.bw_total::total           143617344                       # Total bandwidth to/from this memory (bytes/s)
system.mem_ctrls1.readReqs                    2961674                       # Number of read requests accepted
system.mem_ctrls1.writeReqs                   1354251                       # Number of write requests accepted
system.mem_ctrls1.readBursts                  2961674                       # Number of DRAM read bursts, including those serviced by the write queue
system.mem_ctrls1.writeBursts                 1354251                       # Number of DRAM write bursts, including those merged in the write queue
system.mem_ctrls1.bytesReadDRAM             189354880                       # Total number of bytes read from DRAM
system.mem_ctrls1.bytesReadWrQ                 192256                       # Total number of bytes read from write queue
system.mem_ctrls1.bytesWritten               86670208                       # Total number of bytes written to DRAM
system.mem_ctrls1.bytesReadSys              189547136                       # Total read bytes from the system interface side
system.mem_ctrls1.bytesWrittenSys            86672064                       # Total written bytes from the system interface side
system.mem_ctrls1.servicedByWrQ                  3004                       # Number of DRAM read bursts serviced by the write queue
system.mem_ctrls1.mergedWrBursts                   18                       # Number of DRAM write bursts merged with an existing one
system.mem_ctrls1.neitherReadNorWriteReqs            0                       # Number of requests that are neither read nor write
system.mem_ctrls1.perBankRdBursts::0           192505                       # Per bank write bursts
system.mem_ctrls1.perBankRdBursts::1           186223                       # Per bank write bursts
system.mem_ctrls1.perBankRdBursts::2           184477                       # Per bank write bursts
system.mem_ctrls1.perBankRdBursts::3           188270                       # Per bank write bursts
system.mem_ctrls1.perBankRdBursts::4           184687                       # Per bank write bursts
system.mem_ctrls1.perBankRdBursts::5           182634                       # Per bank write bursts
system.mem_ctrls1.perBankRdBursts::6           183039                       # Per bank write bursts
system.mem_ctrls1.perBankRdBursts::7           184796                       # Per bank write bursts
system.mem_ctrls1.perBankRdBursts::8           184307                       # Per bank write bursts
system.mem_ctrls1.perBankRdBursts::9           182194                       # Per bank write bursts
system.mem_ctrls1.perBankRdBursts::10          183980                       # Per bank write bursts
system.mem_ctrls1.perBankRdBursts::11          183257                       # Per bank write bursts
system.mem_ctrls1.perBankRdBursts::12          184110                       # Per bank write bursts
system.mem_ctrls1.perBankRdBursts::13          183961                       # Per bank write bursts
system.mem_ctrls1.perBankRdBursts::14          184187                       # Per bank write bursts
system.mem_ctrls1.perBankRdBursts::15          186043                       # Per bank write bursts
system.mem_ctrls1.perBankWrBursts::0            91420                       # Per bank write bursts
system.mem_ctrls1.perBankWrBursts::1            85974                       # Per bank write bursts
system.mem_ctrls1.perBankWrBursts::2            83448                       # Per bank write bursts
system.mem_ctrls1.perBankWrBursts::3            88059                       # Per bank write bursts
system.mem_ctrls1.perBankWrBursts::4            84403                       # Per bank write bursts
system.mem_ctrls1.perBankWrBursts::5            83247                       # Per bank write bursts
system.mem_ctrls1.perBankWrBursts::6            82661                       # Per bank write bursts
system.mem_ctrls1.perBankWrBursts::7            82984                       # Per bank write bursts
system.mem_ctrls1.perBankWrBursts::8            83552                       # Per bank write bursts
system.mem_ctrls1.perBankWrBursts::9            83100                       # Per bank write bursts
system.mem_ctrls1.perBankWrBursts::10           83488                       # Per bank write bursts
system.mem_ctrls1.perBankWrBursts::11           83679                       # Per bank write bursts
system.mem_ctrls1.perBankWrBursts::12           84155                       # Per bank write bursts
system.mem_ctrls1.perBankWrBursts::13           83901                       # Per bank write bursts
system.mem_ctrls1.perBankWrBursts::14           84818                       # Per bank write bursts
system.mem_ctrls1.perBankWrBursts::15           85333                       # Per bank write bursts
system.mem_ctrls1.numRdRetry                        0                       # Number of times read queue was full causing retry
system.mem_ctrls1.numWrRetry                        0                       # Number of times write queue was full causing retry
system.mem_ctrls1.totGap                 1923299364000                       # Total gap between requests
system.mem_ctrls1.readPktSize::0                    0                       # Read request sizes (log2)
system.mem_ctrls1.readPktSize::1                    0                       # Read request sizes (log2)
system.mem_ctrls1.readPktSize::2                    0                       # Read request sizes (log2)
system.mem_ctrls1.readPktSize::3                    0                       # Read request sizes (log2)
system.mem_ctrls1.readPktSize::4                    0                       # Read request sizes (log2)
system.mem_ctrls1.readPktSize::5                    0                       # Read request sizes (log2)
system.mem_ctrls1.readPktSize::6              2961674                       # Read request sizes (log2)
system.mem_ctrls1.writePktSize::0                   0                       # Write request sizes (log2)
system.mem_ctrls1.writePktSize::1                   0                       # Write request sizes (log2)
system.mem_ctrls1.writePktSize::2                   0                       # Write request sizes (log2)
system.mem_ctrls1.writePktSize::3                   0                       # Write request sizes (log2)
system.mem_ctrls1.writePktSize::4                   0                       # Write request sizes (log2)
system.mem_ctrls1.writePktSize::5                   0                       # Write request sizes (log2)
system.mem_ctrls1.writePktSize::6             1354251                       # Write request sizes (log2)
system.mem_ctrls1.rdQLenPdf::0                2954185                       # What read queue length does an incoming req see
system.mem_ctrls1.rdQLenPdf::1                   4482                       # What read queue length does an incoming req see
system.mem_ctrls1.rdQLenPdf::2                      3                       # What read queue length does an incoming req see
system.mem_ctrls1.rdQLenPdf::3                      0                       # What read queue length does an incoming req see
system.mem_ctrls1.rdQLenPdf::4                      0                       # What read queue length does an incoming req see
system.mem_ctrls1.rdQLenPdf::5                      0                       # What read queue length does an incoming req see
system.mem_ctrls1.rdQLenPdf::6                      0                       # What read queue length does an incoming req see
system.mem_ctrls1.rdQLenPdf::7                      0                       # What read queue length does an incoming req see
system.mem_ctrls1.rdQLenPdf::8                      0                       # What read queue length does an incoming req see
system.mem_ctrls1.rdQLenPdf::9                      0                       # What read queue length does an incoming req see
system.mem_ctrls1.rdQLenPdf::10                     0                       # What read queue length does an incoming req see
system.mem_ctrls1.rdQLenPdf::11                     0                       # What read queue length does an incoming req see
system.mem_ctrls1.rdQLenPdf::12                     0                       # What read queue length does an incoming req see
system.mem_ctrls1.rdQLenPdf::13                     0                       # What read queue length does an incoming req see
system.mem_ctrls1.rdQLenPdf::14                     0                       # What read queue length does an incoming req see
system.mem_ctrls1.rdQLenPdf::15                     0                       # What read queue length does an incoming req see
system.mem_ctrls1.rdQLenPdf::16                     0                       # What read queue length does an incoming req see
system.mem_ctrls1.rdQLenPdf::17                     0                       # What read queue length does an incoming req see
system.mem_ctrls1.rdQLenPdf::18                     0                       # What read queue length does an incoming req see
system.mem_ctrls1.rdQLenPdf::19                     0                       # What read queue length does an incoming req see
system.mem_ctrls1.rdQLenPdf::20                     0                       # What read queue length does an incoming req see
system.mem_ctrls1.rdQLenPdf::21                     0                       # What read queue length does an incoming req see
system.mem_ctrls1.rdQLenPdf::22                     0                       # What read queue length does an incoming req see
system.mem_ctrls1.rdQLenPdf::23                     0                       # What read queue length does an incoming req see
system.mem_ctrls1.rdQLenPdf::24                     0                       # What read queue length does an incoming req see
system.mem_ctrls1.rdQLenPdf::25                     0                       # What read queue length does an incoming req see
system.mem_ctrls1.rdQLenPdf::26                     0                       # What read queue length does an incoming req see
system.mem_ctrls1.rdQLenPdf::27                     0                       # What read queue length does an incoming req see
system.mem_ctrls1.rdQLenPdf::28                     0                       # What read queue length does an incoming req see
system.mem_ctrls1.rdQLenPdf::29                     0                       # What read queue length does an incoming req see
system.mem_ctrls1.rdQLenPdf::30                     0                       # What read queue length does an incoming req see
system.mem_ctrls1.rdQLenPdf::31                     0                       # What read queue length does an incoming req see
system.mem_ctrls1.wrQLenPdf::0                      0                       # What write queue length does an incoming req see
system.mem_ctrls1.wrQLenPdf::1                      0                       # What write queue length does an incoming req see
system.mem_ctrls1.wrQLenPdf::2                      0                       # What write queue length does an incoming req see
system.mem_ctrls1.wrQLenPdf::3                      0                       # What write queue length does an incoming req see
system.mem_ctrls1.wrQLenPdf::4                      0                       # What write queue length does an incoming req see
system.mem_ctrls1.wrQLenPdf::5                      0                       # What write queue length does an incoming req see
system.mem_ctrls1.wrQLenPdf::6                      0                       # What write queue length does an incoming req see
system.mem_ctrls1.wrQLenPdf::7                      0                       # What write queue length does an incoming req see
system.mem_ctrls1.wrQLenPdf::8                      0                       # What write queue length does an incoming req see
system.mem_ctrls1.wrQLenPdf::9                      0                       # What write queue length does an incoming req see
system.mem_ctrls1.wrQLenPdf::10                     0                       # What write queue length does an incoming req see
system.mem_ctrls1.wrQLenPdf::11                     0                       # What write queue length does an incoming req see
system.mem_ctrls1.wrQLenPdf::12                     0                       # What write queue length does an incoming req see
system.mem_ctrls1.wrQLenPdf::13                     0                       # What write queue length does an incoming req see
system.mem_ctrls1.wrQLenPdf::14                     0                       # What write queue length does an incoming req see
system.mem_ctrls1.wrQLenPdf::15                  1853                       # What write queue length does an incoming req see
system.mem_ctrls1.wrQLenPdf::16                  1954                       # What write queue length does an incoming req see
system.mem_ctrls1.wrQLenPdf::17                 83955                       # What write queue length does an incoming req see
system.mem_ctrls1.wrQLenPdf::18                 84453                       # What write queue length does an incoming req see
system.mem_ctrls1.wrQLenPdf::19                 84472                       # What write queue length does an incoming req see
system.mem_ctrls1.wrQLenPdf::20                 84454                       # What write queue length does an incoming req see
system.mem_ctrls1.wrQLenPdf::21                 84457                       # What write queue length does an incoming req see
system.mem_ctrls1.wrQLenPdf::22                 84445                       # What write queue length does an incoming req see
system.mem_ctrls1.wrQLenPdf::23                 84449                       # What write queue length does an incoming req see
system.mem_ctrls1.wrQLenPdf::24                 84432                       # What write queue length does an incoming req see
system.mem_ctrls1.wrQLenPdf::25                 84425                       # What write queue length does an incoming req see
system.mem_ctrls1.wrQLenPdf::26                 84416                       # What write queue length does an incoming req see
system.mem_ctrls1.wrQLenPdf::27                 84419                       # What write queue length does an incoming req see
system.mem_ctrls1.wrQLenPdf::28                 84415                       # What write queue length does an incoming req see
system.mem_ctrls1.wrQLenPdf::29                 84411                       # What write queue length does an incoming req see
system.mem_ctrls1.wrQLenPdf::30                 84412                       # What write queue length does an incoming req see
system.mem_ctrls1.wrQLenPdf::31                 84403                       # What write queue length does an incoming req see
system.mem_ctrls1.wrQLenPdf::32                 84402                       # What write queue length does an incoming req see
system.mem_ctrls1.wrQLenPdf::33                     6                       # What write queue length does an incoming req see
system.mem_ctrls1.wrQLenPdf::34                     0                       # What write queue length does an incoming req see
system.mem_ctrls1.wrQLenPdf::35                     0                       # What write queue length does an incoming req see
system.mem_ctrls1.wrQLenPdf::36                     0                       # What write queue length does an incoming req see
system.mem_ctrls1.wrQLenPdf::37                     0                       # What write queue length does an incoming req see
system.mem_ctrls1.wrQLenPdf::38                     0                       # What write queue length does an incoming req see
system.mem_ctrls1.wrQLenPdf::39                     0                       # What write queue length does an incoming req see
system.mem_ctrls1.wrQLenPdf::40                     0                       # What write queue length does an incoming req see
system.mem_ctrls1.wrQLenPdf::41                     0                       # What write queue length does an incoming req see
system.mem_ctrls1.wrQLenPdf::42                     0                       # What write queue length does an incoming req see
system.mem_ctrls1.wrQLenPdf::43                     0                       # What write queue length does an incoming req see
system.mem_ctrls1.wrQLenPdf::44                     0                       # What write queue length does an incoming req see
system.mem_ctrls1.wrQLenPdf::45                     0                       # What write queue length does an incoming req see
system.mem_ctrls1.wrQLenPdf::46                     0                       # What write queue length does an incoming req see
system.mem_ctrls1.wrQLenPdf::47                     0                       # What write queue length does an incoming req see
system.mem_ctrls1.wrQLenPdf::48                     0                       # What write queue length does an incoming req see
system.mem_ctrls1.wrQLenPdf::49                     0                       # What write queue length does an incoming req see
system.mem_ctrls1.wrQLenPdf::50                     0                       # What write queue length does an incoming req see
system.mem_ctrls1.wrQLenPdf::51                     0                       # What write queue length does an incoming req see
system.mem_ctrls1.wrQLenPdf::52                     0                       # What write queue length does an incoming req see
system.mem_ctrls1.wrQLenPdf::53                     0                       # What write queue length does an incoming req see
system.mem_ctrls1.wrQLenPdf::54                     0                       # What write queue length does an incoming req see
system.mem_ctrls1.wrQLenPdf::55                     0                       # What write queue length does an incoming req see
system.mem_ctrls1.wrQLenPdf::56                     0                       # What write queue length does an incoming req see
system.mem_ctrls1.wrQLenPdf::57                     0                       # What write queue length does an incoming req see
system.mem_ctrls1.wrQLenPdf::58                     0                       # What write queue length does an incoming req see
system.mem_ctrls1.wrQLenPdf::59                     0                       # What write queue length does an incoming req see
system.mem_ctrls1.wrQLenPdf::60                     0                       # What write queue length does an incoming req see
system.mem_ctrls1.wrQLenPdf::61                     0                       # What write queue length does an incoming req see
system.mem_ctrls1.wrQLenPdf::62                     0                       # What write queue length does an incoming req see
system.mem_ctrls1.wrQLenPdf::63                     0                       # What write queue length does an incoming req see
system.mem_ctrls1.bytesPerActivate::samples      1967158                       # Bytes accessed per row activation
system.mem_ctrls1.bytesPerActivate::mean   140.316814                       # Bytes accessed per row activation
system.mem_ctrls1.bytesPerActivate::gmean    90.409609                       # Bytes accessed per row activation
system.mem_ctrls1.bytesPerActivate::stdev   202.399701                       # Bytes accessed per row activation
system.mem_ctrls1.bytesPerActivate::0-127      1554629     79.03%     79.03% # Bytes accessed per row activation
system.mem_ctrls1.bytesPerActivate::128-255       144161      7.33%     86.36% # Bytes accessed per row activation
system.mem_ctrls1.bytesPerActivate::256-383        71440      3.63%     89.99% # Bytes accessed per row activation
system.mem_ctrls1.bytesPerActivate::384-511        57930      2.94%     92.93% # Bytes accessed per row activation
system.mem_ctrls1.bytesPerActivate::512-639        40438      2.06%     94.99% # Bytes accessed per row activation
system.mem_ctrls1.bytesPerActivate::640-767        18410      0.94%     95.93% # Bytes accessed per row activation
system.mem_ctrls1.bytesPerActivate::768-895        19765      1.00%     96.93% # Bytes accessed per row activation
system.mem_ctrls1.bytesPerActivate::896-1023        11355      0.58%     97.51% # Bytes accessed per row activation
system.mem_ctrls1.bytesPerActivate::1024-1151        49030      2.49%    100.00% # Bytes accessed per row activation
system.mem_ctrls1.bytesPerActivate::total      1967158                       # Bytes accessed per row activation
system.mem_ctrls1.rdPerTurnAround::samples        84398                       # Reads before turning the bus around for writes
system.mem_ctrls1.rdPerTurnAround::mean     35.147752                       # Reads before turning the bus around for writes
system.mem_ctrls1.rdPerTurnAround::gmean    24.732371                       # Reads before turning the bus around for writes
system.mem_ctrls1.rdPerTurnAround::stdev   200.893382                       # Reads before turning the bus around for writes
system.mem_ctrls1.rdPerTurnAround::0-511        84163     99.72%     99.72% # Reads before turning the bus around for writes
system.mem_ctrls1.rdPerTurnAround::512-1023           34      0.04%     99.76% # Reads before turning the bus around for writes
system.mem_ctrls1.rdPerTurnAround::1024-1535           28      0.03%     99.80% # Reads before turning the bus around for writes
system.mem_ctrls1.rdPerTurnAround::1536-2047           21      0.02%     99.82% # Reads before turning the bus around for writes
system.mem_ctrls1.rdPerTurnAround::2048-2559           29      0.03%     99.85% # Reads before turning the bus around for writes
system.mem_ctrls1.rdPerTurnAround::2560-3071           12      0.01%     99.87% # Reads before turning the bus around for writes
system.mem_ctrls1.rdPerTurnAround::3072-3583           15      0.02%     99.89% # Reads before turning the bus around for writes
system.mem_ctrls1.rdPerTurnAround::3584-4095           22      0.03%     99.91% # Reads before turning the bus around for writes
system.mem_ctrls1.rdPerTurnAround::4096-4607           20      0.02%     99.94% # Reads before turning the bus around for writes
system.mem_ctrls1.rdPerTurnAround::4608-5119            8      0.01%     99.95% # Reads before turning the bus around for writes
system.mem_ctrls1.rdPerTurnAround::5120-5631            4      0.00%     99.95% # Reads before turning the bus around for writes
system.mem_ctrls1.rdPerTurnAround::5632-6143            8      0.01%     99.96% # Reads before turning the bus around for writes
system.mem_ctrls1.rdPerTurnAround::6144-6655           20      0.02%     99.98% # Reads before turning the bus around for writes
system.mem_ctrls1.rdPerTurnAround::6656-7167            5      0.01%     99.99% # Reads before turning the bus around for writes
system.mem_ctrls1.rdPerTurnAround::7168-7679            1      0.00%     99.99% # Reads before turning the bus around for writes
system.mem_ctrls1.rdPerTurnAround::7680-8191            4      0.00%    100.00% # Reads before turning the bus around for writes
system.mem_ctrls1.rdPerTurnAround::8192-8703            3      0.00%    100.00% # Reads before turning the bus around for writes
system.mem_ctrls1.rdPerTurnAround::9216-9727            1      0.00%    100.00% # Reads before turning the bus around for writes
system.mem_ctrls1.rdPerTurnAround::total        84398                       # Reads before turning the bus around for writes
system.mem_ctrls1.wrPerTurnAround::samples        84398                       # Writes before turning the bus around for reads
system.mem_ctrls1.wrPerTurnAround::mean     16.045665                       # Writes before turning the bus around for reads
system.mem_ctrls1.wrPerTurnAround::gmean    16.043098                       # Writes before turning the bus around for reads
system.mem_ctrls1.wrPerTurnAround::stdev     0.298064                       # Writes before turning the bus around for reads
system.mem_ctrls1.wrPerTurnAround::16           82442     97.68%     97.68% # Writes before turning the bus around for reads
system.mem_ctrls1.wrPerTurnAround::17              70      0.08%     97.77% # Writes before turning the bus around for reads
system.mem_ctrls1.wrPerTurnAround::18            1874      2.22%     99.99% # Writes before turning the bus around for reads
system.mem_ctrls1.wrPerTurnAround::19              12      0.01%    100.00% # Writes before turning the bus around for reads
system.mem_ctrls1.wrPerTurnAround::total        84398                       # Writes before turning the bus around for reads
system.mem_ctrls1.totQLat                 48946101675                       # Total ticks spent queuing
system.mem_ctrls1.totMemAccLat           104421164175                       # Total ticks spent from burst creation until serviced by the DRAM
system.mem_ctrls1.totBusLat               14793350000                       # Total ticks spent in databus transfers
system.mem_ctrls1.avgQLat                    16543.28                       # Average queueing delay per DRAM burst
system.mem_ctrls1.avgBusLat                   5000.00                       # Average bus latency per DRAM burst
system.mem_ctrls1.avgMemAccLat               35293.28                       # Average memory access latency per DRAM burst
system.mem_ctrls1.avgRdBW                       98.45                       # Average DRAM read bandwidth in MiByte/s
system.mem_ctrls1.avgWrBW                       45.06                       # Average achieved write bandwidth in MiByte/s
system.mem_ctrls1.avgRdBWSys                    98.55                       # Average system read bandwidth in MiByte/s
system.mem_ctrls1.avgWrBWSys                    45.06                       # Average system write bandwidth in MiByte/s
system.mem_ctrls1.peakBW                     12800.00                       # Theoretical peak bandwidth in MiByte/s
system.mem_ctrls1.busUtil                        1.12                       # Data bus utilization in percentage
system.mem_ctrls1.busUtilRead                    0.77                       # Data bus utilization in percentage for reads
system.mem_ctrls1.busUtilWrite                   0.35                       # Data bus utilization in percentage for writes
system.mem_ctrls1.avgRdQLen                      1.00                       # Average read queue length when enqueuing
system.mem_ctrls1.avgWrQLen                     25.36                       # Average write queue length when enqueuing
system.mem_ctrls1.readRowHits                 1809272                       # Number of row buffer hits during reads
system.mem_ctrls1.writeRowHits                 536464                       # Number of row buffer hits during writes
system.mem_ctrls1.readRowHitRate                61.15                       # Row buffer hit rate for reads
system.mem_ctrls1.writeRowHitRate               39.61                       # Row buffer hit rate for writes
system.mem_ctrls1.avgGap                    445628.54                       # Average gap between requests
system.mem_ctrls1.pageHitRate                   54.39                       # Row buffer hit rate, read and write combined
system.mem_ctrls1_0.actEnergy              7513490880                       # Energy for activate commands per rank (pJ)
system.mem_ctrls1_0.preEnergy              4099623000                       # Energy for precharge commands per rank (pJ)
system.mem_ctrls1_0.readEnergy            11617717800                       # Energy for read commands per rank (pJ)
system.mem_ctrls1_0.writeEnergy            4420630080                       # Energy for write commands per rank (pJ)
system.mem_ctrls1_0.refreshEnergy        125865040080                       # Energy for refresh commands per rank (pJ)
system.mem_ctrls1_0.actBackEnergy        623794745790                       # Energy for active background per rank (pJ)
system.mem_ctrls1_0.preBackEnergy        609037205250                       # Energy for precharge background per rank (pJ)
system.mem_ctrls1_0.totalEnergy          1386348452880                       # Total energy per rank (pJ)
system.mem_ctrls1_0.averagePower           719.417635                       # Core power per rank (mW)
system.mem_ctrls1_0.memoryStateTime::IDLE 1006916581250                       # Time in different power states
system.mem_ctrls1_0.memoryStateTime::REF  64223380000                       # Time in different power states
system.mem_ctrls1_0.memoryStateTime::PRE_PDN            0                       # Time in different power states
system.mem_ctrls1_0.memoryStateTime::ACT 852159919750                       # Time in different power states
system.mem_ctrls1_0.memoryStateTime::ACT_PDN            0                       # Time in different power states
system.mem_ctrls1_1.actEnergy              7377032880                       # Energy for activate commands per rank (pJ)
system.mem_ctrls1_1.preEnergy              4025166750                       # Energy for precharge commands per rank (pJ)
system.mem_ctrls1_1.readEnergy            11520334800                       # Energy for read commands per rank (pJ)
system.mem_ctrls1_1.writeEnergy            4354728480                       # Energy for write commands per rank (pJ)
system.mem_ctrls1_1.refreshEnergy        125865040080                       # Energy for refresh commands per rank (pJ)
system.mem_ctrls1_1.actBackEnergy        622848218895                       # Energy for active background per rank (pJ)
system.mem_ctrls1_1.preBackEnergy        609867492000                       # Energy for precharge background per rank (pJ)
system.mem_ctrls1_1.totalEnergy          1385858013885                       # Total energy per rank (pJ)
system.mem_ctrls1_1.averagePower           719.163132                       # Core power per rank (mW)
system.mem_ctrls1_1.memoryStateTime::IDLE 1008986641750                       # Time in different power states
system.mem_ctrls1_1.memoryStateTime::REF  64223380000                       # Time in different power states
system.mem_ctrls1_1.memoryStateTime::PRE_PDN            0                       # Time in different power states
system.mem_ctrls1_1.memoryStateTime::ACT 850094877750                       # Time in different power states
system.mem_ctrls1_1.memoryStateTime::ACT_PDN            0                       # Time in different power states
system.cpu_voltage_domain.voltage                   1                       # Voltage in Volts
system.cpu_clk_domain.clock                       500                       # Clock period in ticks
system.cpu0.apic_clk_domain.clock                8000                       # Clock period in ticks
system.cpu0.numCycles                      3844337192                       # number of cpu cycles simulated
system.cpu0.numWorkItemsStarted                     0                       # number of work items this cpu started
system.cpu0.numWorkItemsCompleted                   0                       # number of work items this cpu completed
system.cpu0.kern.inst.arm                           0                       # number of arm instructions executed
system.cpu0.kern.inst.quiesce                       0                       # number of quiesce instructions executed
system.cpu0.committedInsts                    1523161                       # Number of instructions committed
system.cpu0.committedOps                      3326236                       # Number of ops (including micro ops) committed
system.cpu0.num_int_alu_accesses              3254335                       # Number of integer alu accesses
system.cpu0.num_fp_alu_accesses                     0                       # Number of float alu accesses
system.cpu0.num_func_calls                      98636                       # number of times a function call or return occured
system.cpu0.num_conditional_control_insts       219054                       # number of instructions that are conditional controls
system.cpu0.num_int_insts                     3254335                       # number of integer instructions
system.cpu0.num_fp_insts                            0                       # number of float instructions
system.cpu0.num_int_register_reads            6613187                       # number of times the integer registers were read
system.cpu0.num_int_register_writes           2696652                       # number of times the integer registers were written
system.cpu0.num_fp_register_reads                   0                       # number of times the floating registers were read
system.cpu0.num_fp_register_writes                  0                       # number of times the floating registers were written
system.cpu0.num_cc_register_reads             1832238                       # number of times the CC registers were read
system.cpu0.num_cc_register_writes             992511                       # number of times the CC registers were written
system.cpu0.num_mem_refs                       785082                       # number of memory refs
system.cpu0.num_load_insts                     484615                       # Number of load instructions
system.cpu0.num_store_insts                    300467                       # Number of store instructions
system.cpu0.num_idle_cycles              3833397598.639279                       # Number of idle cycles
system.cpu0.num_busy_cycles              10939593.360721                       # Number of busy cycles
system.cpu0.not_idle_fraction                0.002846                       # Percentage of non-idle cycles
system.cpu0.idle_fraction                    0.997154                       # Percentage of idle cycles
system.cpu0.Branches                           347651                       # Number of branches fetched
system.cpu0.op_class::No_OpClass                57755      1.74%      1.74% # Class of executed instruction
system.cpu0.op_class::IntAlu                  2457829     73.89%     75.63% # Class of executed instruction
system.cpu0.op_class::IntMult                    6274      0.19%     75.82% # Class of executed instruction
system.cpu0.op_class::IntDiv                    19299      0.58%     76.40% # Class of executed instruction
system.cpu0.op_class::FloatAdd                      0      0.00%     76.40% # Class of executed instruction
system.cpu0.op_class::FloatCmp                      0      0.00%     76.40% # Class of executed instruction
system.cpu0.op_class::FloatCvt                      0      0.00%     76.40% # Class of executed instruction
system.cpu0.op_class::FloatMult                     0      0.00%     76.40% # Class of executed instruction
system.cpu0.op_class::FloatDiv                      0      0.00%     76.40% # Class of executed instruction
system.cpu0.op_class::FloatSqrt                     0      0.00%     76.40% # Class of executed instruction
system.cpu0.op_class::SimdAdd                       0      0.00%     76.40% # Class of executed instruction
system.cpu0.op_class::SimdAddAcc                    0      0.00%     76.40% # Class of executed instruction
system.cpu0.op_class::SimdAlu                       0      0.00%     76.40% # Class of executed instruction
system.cpu0.op_class::SimdCmp                       0      0.00%     76.40% # Class of executed instruction
system.cpu0.op_class::SimdCvt                       0      0.00%     76.40% # Class of executed instruction
system.cpu0.op_class::SimdMisc                      0      0.00%     76.40% # Class of executed instruction
system.cpu0.op_class::SimdMult                      0      0.00%     76.40% # Class of executed instruction
system.cpu0.op_class::SimdMultAcc                   0      0.00%     76.40% # Class of executed instruction
system.cpu0.op_class::SimdShift                     0      0.00%     76.40% # Class of executed instruction
system.cpu0.op_class::SimdShiftAcc                  0      0.00%     76.40% # Class of executed instruction
system.cpu0.op_class::SimdSqrt                      0      0.00%     76.40% # Class of executed instruction
system.cpu0.op_class::SimdFloatAdd                  0      0.00%     76.40% # Class of executed instruction
system.cpu0.op_class::SimdFloatAlu                  0      0.00%     76.40% # Class of executed instruction
system.cpu0.op_class::SimdFloatCmp                  0      0.00%     76.40% # Class of executed instruction
system.cpu0.op_class::SimdFloatCvt                  0      0.00%     76.40% # Class of executed instruction
system.cpu0.op_class::SimdFloatDiv                  0      0.00%     76.40% # Class of executed instruction
system.cpu0.op_class::SimdFloatMisc                 0      0.00%     76.40% # Class of executed instruction
system.cpu0.op_class::SimdFloatMult                 0      0.00%     76.40% # Class of executed instruction
system.cpu0.op_class::SimdFloatMultAcc              0      0.00%     76.40% # Class of executed instruction
system.cpu0.op_class::SimdFloatSqrt                 0      0.00%     76.40% # Class of executed instruction
system.cpu0.op_class::MemRead                  484615     14.57%     90.97% # Class of executed instruction
system.cpu0.op_class::MemWrite                 300467      9.03%    100.00% # Class of executed instruction
system.cpu0.op_class::IprAccess                     0      0.00%    100.00% # Class of executed instruction
system.cpu0.op_class::InstPrefetch                  0      0.00%    100.00% # Class of executed instruction
system.cpu0.op_class::total                   3326239                       # Class of executed instruction
system.cpu1.apic_clk_domain.clock                8000                       # Clock period in ticks
system.cpu1.numCycles                      3844358653                       # number of cpu cycles simulated
system.cpu1.numWorkItemsStarted                     0                       # number of work items this cpu started
system.cpu1.numWorkItemsCompleted                   0                       # number of work items this cpu completed
system.cpu1.kern.inst.arm                           0                       # number of arm instructions executed
system.cpu1.kern.inst.quiesce                       0                       # number of quiesce instructions executed
system.cpu1.committedInsts                    3939346                       # Number of instructions committed
system.cpu1.committedOps                      7896305                       # Number of ops (including micro ops) committed
system.cpu1.num_int_alu_accesses              7753394                       # Number of integer alu accesses
system.cpu1.num_fp_alu_accesses                  1778                       # Number of float alu accesses
system.cpu1.num_func_calls                     205908                       # number of times a function call or return occured
system.cpu1.num_conditional_control_insts       662541                       # number of instructions that are conditional controls
system.cpu1.num_int_insts                     7753394                       # number of integer instructions
system.cpu1.num_fp_insts                         1778                       # number of float instructions
system.cpu1.num_int_register_reads           15438063                       # number of times the integer registers were read
system.cpu1.num_int_register_writes           6312413                       # number of times the integer registers were written
system.cpu1.num_fp_register_reads                2988                       # number of times the floating registers were read
system.cpu1.num_fp_register_writes               1416                       # number of times the floating registers were written
system.cpu1.num_cc_register_reads             4968983                       # number of times the CC registers were read
system.cpu1.num_cc_register_writes            2677144                       # number of times the CC registers were written
system.cpu1.num_mem_refs                      1789887                       # number of memory refs
system.cpu1.num_load_insts                    1159657                       # Number of load instructions
system.cpu1.num_store_insts                    630230                       # Number of store instructions
system.cpu1.num_idle_cycles              3822228149.557818                       # Number of idle cycles
system.cpu1.num_busy_cycles              22130503.442182                       # Number of busy cycles
system.cpu1.not_idle_fraction                0.005757                       # Percentage of non-idle cycles
system.cpu1.idle_fraction                    0.994243                       # Percentage of idle cycles
system.cpu1.Branches                           906265                       # Number of branches fetched
system.cpu1.op_class::No_OpClass                59442      0.75%      0.75% # Class of executed instruction
system.cpu1.op_class::IntAlu                  6017718     76.21%     76.96% # Class of executed instruction
system.cpu1.op_class::IntMult                    8256      0.10%     77.07% # Class of executed instruction
system.cpu1.op_class::IntDiv                    19749      0.25%     77.32% # Class of executed instruction
system.cpu1.op_class::FloatAdd                   1344      0.02%     77.33% # Class of executed instruction
system.cpu1.op_class::FloatCmp                      0      0.00%     77.33% # Class of executed instruction
system.cpu1.op_class::FloatCvt                      0      0.00%     77.33% # Class of executed instruction
system.cpu1.op_class::FloatMult                     0      0.00%     77.33% # Class of executed instruction
system.cpu1.op_class::FloatDiv                      0      0.00%     77.33% # Class of executed instruction
system.cpu1.op_class::FloatSqrt                     0      0.00%     77.33% # Class of executed instruction
system.cpu1.op_class::SimdAdd                       0      0.00%     77.33% # Class of executed instruction
system.cpu1.op_class::SimdAddAcc                    0      0.00%     77.33% # Class of executed instruction
system.cpu1.op_class::SimdAlu                       0      0.00%     77.33% # Class of executed instruction
system.cpu1.op_class::SimdCmp                       0      0.00%     77.33% # Class of executed instruction
system.cpu1.op_class::SimdCvt                       0      0.00%     77.33% # Class of executed instruction
system.cpu1.op_class::SimdMisc                      0      0.00%     77.33% # Class of executed instruction
system.cpu1.op_class::SimdMult                      0      0.00%     77.33% # Class of executed instruction
system.cpu1.op_class::SimdMultAcc                   0      0.00%     77.33% # Class of executed instruction
system.cpu1.op_class::SimdShift                     0      0.00%     77.33% # Class of executed instruction
system.cpu1.op_class::SimdShiftAcc                  0      0.00%     77.33% # Class of executed instruction
system.cpu1.op_class::SimdSqrt                      0      0.00%     77.33% # Class of executed instruction
system.cpu1.op_class::SimdFloatAdd                  0      0.00%     77.33% # Class of executed instruction
system.cpu1.op_class::SimdFloatAlu                  0      0.00%     77.33% # Class of executed instruction
system.cpu1.op_class::SimdFloatCmp                  0      0.00%     77.33% # Class of executed instruction
system.cpu1.op_class::SimdFloatCvt                  0      0.00%     77.33% # Class of executed instruction
[...]
system.ruby.L1Cache_Controller.L0_Ack    |       58229     10.00%     10.00% |       61434     10.56%     20.56% |       58896     10.12%     30.68% |      403442     69.32%    100.00%
system.ruby.L1Cache_Controller.L0_Ack::total       582001                      
system.ruby.L1Cache_Controller.Ack       |        9955     59.26%     59.26% |        3261     19.41%     78.67% |        1718     10.23%     88.89% |        1866     11.11%    100.00%
system.ruby.L1Cache_Controller.Ack::total        16800                      
system.ruby.L1Cache_Controller.Ack_all   |        5021     46.35%     46.35% |        2498     23.06%     69.41% |        1271     11.73%     81.15% |        2042     18.85%    100.00%
system.ruby.L1Cache_Controller.Ack_all::total        10832                      
system.ruby.L1Cache_Controller.WB_Ack    |       55387      0.22%      0.22% |      201591      0.82%      1.04% |       52696      0.21%      1.25% |    24373357     98.75%    100.00%
system.ruby.L1Cache_Controller.WB_Ack::total     24683031                      
system.ruby.L1Cache_Controller.I.Load    |      107490      0.73%      0.73% |      203816      1.38%      2.11% |      101871      0.69%      2.80% |    14327291     97.20%    100.00%
system.ruby.L1Cache_Controller.I.Load::total     14740468                      
system.ruby.L1Cache_Controller.I.Store   |       22535      0.22%      0.22% |       67246      0.65%      0.87% |       20715      0.20%      1.07% |    10212011     98.93%    100.00%
system.ruby.L1Cache_Controller.I.Store::total     10322507                      
system.ruby.L1Cache_Controller.I.Inv     |        3516     18.01%     18.01% |        2421     12.40%     30.41% |        2746     14.06%     44.47% |       10843     55.53%    100.00%
system.ruby.L1Cache_Controller.I.Inv::total        19526                      
system.ruby.L1Cache_Controller.S.Load    |      129884     11.46%     11.46% |      237372     20.94%     32.40% |      136439     12.04%     44.44% |      629836     55.56%    100.00%
system.ruby.L1Cache_Controller.S.Load::total      1133531                      
system.ruby.L1Cache_Controller.S.Store   |        3076     40.33%     40.33% |        1770     23.21%     63.54% |        1101     14.44%     77.97% |        1680     22.03%    100.00%
system.ruby.L1Cache_Controller.S.Store::total         7627                      
system.ruby.L1Cache_Controller.S.L0_Invalidate_Own |       35728     13.43%     13.43% |       33216     12.49%     25.92% |       33962     12.77%     38.68% |      163124     61.32%    100.00%
system.ruby.L1Cache_Controller.S.L0_Invalidate_Own::total       266030                      
system.ruby.L1Cache_Controller.S.L0_Invalidate_Else |       16636     30.70%     30.70% |       17331     31.98%     62.68% |       19907     36.74%     99.42% |         315      0.58%    100.00%
system.ruby.L1Cache_Controller.S.L0_Invalidate_Else::total        54189                      
system.ruby.L1Cache_Controller.SS.Load   |        5629     31.88%     31.88% |        9037     51.19%     83.07% |        2734     15.49%     98.56% |         255      1.44%    100.00%
system.ruby.L1Cache_Controller.SS.Load::total        17655                      
system.ruby.L1Cache_Controller.SS.Store  |         577     71.77%     71.77% |         106     13.18%     84.95% |          58      7.21%     92.16% |          63      7.84%    100.00%
system.ruby.L1Cache_Controller.SS.Store::total          804                      
system.ruby.L1Cache_Controller.SS.Inv    |       18700     29.53%     29.53% |       21427     33.84%     63.37% |       22146     34.97%     98.34% |        1051      1.66%    100.00%
system.ruby.L1Cache_Controller.SS.Inv::total        63324                      
system.ruby.L1Cache_Controller.SS.L1_Replacement |       36870     13.64%     13.64% |       34277     12.68%     26.33% |       35074     12.98%     39.30% |      164038     60.70%    100.00%
system.ruby.L1Cache_Controller.SS.L1_Replacement::total       270259                      
system.ruby.L1Cache_Controller.E.WriteBack |       54690      0.38%      0.38% |      152381      1.07%      1.46% |       45882      0.32%      1.78% |    13972624     98.22%    100.00%
system.ruby.L1Cache_Controller.E.WriteBack::total     14225577                      
system.ruby.L1Cache_Controller.E.L0_Invalidate_Own |         450      0.23%      0.23% |        2532      1.31%      1.54% |         943      0.49%      2.03% |      189537     97.97%    100.00%
system.ruby.L1Cache_Controller.E.L0_Invalidate_Own::total       193462                      
system.ruby.L1Cache_Controller.E.L0_Invalidate_Else |        2655     24.21%     24.21% |        5380     49.05%     73.26% |        2805     25.57%     98.83% |         128      1.17%    100.00%
system.ruby.L1Cache_Controller.E.L0_Invalidate_Else::total        10968                      
system.ruby.L1Cache_Controller.EE.Inv    |        1219     36.20%     36.20% |         774     22.99%     59.19% |        1365     40.54%     99.73% |           9      0.27%    100.00%
system.ruby.L1Cache_Controller.EE.Inv::total         3367                      
system.ruby.L1Cache_Controller.EE.L1_Replacement |         409      0.21%      0.21% |        2470      1.28%      1.49% |         860      0.45%      1.94% |      189233     98.06%    100.00%
system.ruby.L1Cache_Controller.EE.L1_Replacement::total       192972                      
system.ruby.L1Cache_Controller.EE.Fwd_GETX |           7     43.75%     43.75% |           3     18.75%     62.50% |           4     25.00%     87.50% |           2     12.50%    100.00%
system.ruby.L1Cache_Controller.EE.Fwd_GETX::total           16                      
system.ruby.L1Cache_Controller.EE.Fwd_GETS |        1321     19.94%     19.94% |        4226     63.80%     83.74% |         990     14.95%     98.69% |          87      1.31%    100.00%
system.ruby.L1Cache_Controller.EE.Fwd_GETS::total         6624                      
system.ruby.L1Cache_Controller.M.WriteBack |      133891      0.37%      0.37% |      417265      1.16%      1.53% |      114666      0.32%      1.85% |    35312203     98.15%    100.00%
system.ruby.L1Cache_Controller.M.WriteBack::total     35978025                      
system.ruby.L1Cache_Controller.M.L0_Invalidate_Own |        2390      3.72%      3.72% |        2721      4.23%      7.95% |        1671      2.60%     10.54% |       57533     89.46%    100.00%
system.ruby.L1Cache_Controller.M.L0_Invalidate_Own::total        64315                      
system.ruby.L1Cache_Controller.M.L0_Invalidate_Else |        7193     35.80%     35.80% |        6725     33.47%     69.28% |        5877     29.25%     98.53% |         295      1.47%    100.00%
system.ruby.L1Cache_Controller.M.L0_Invalidate_Else::total        20090                      
system.ruby.L1Cache_Controller.MM.Load   |       89464      0.63%      0.63% |      258110      1.82%      2.45% |       73825      0.52%      2.97% |    13773608     97.03%    100.00%
system.ruby.L1Cache_Controller.MM.Load::total     14195007                      
system.ruby.L1Cache_Controller.MM.Store  |       27823      0.24%      0.24% |       99462      0.86%      1.10% |       26533      0.23%      1.33% |    11382660     98.67%    100.00%
system.ruby.L1Cache_Controller.MM.Store::total     11536478                      
system.ruby.L1Cache_Controller.MM.Inv    |       16626     41.31%     41.31% |       12520     31.11%     72.41% |       10676     26.52%     98.94% |         428      1.06%    100.00%
system.ruby.L1Cache_Controller.MM.Inv::total        40250                      
system.ruby.L1Cache_Controller.MM.L1_Replacement |       54978      0.22%      0.22% |      199121      0.81%      1.04% |       51836      0.21%      1.25% |    24184124     98.75%    100.00%
system.ruby.L1Cache_Controller.MM.L1_Replacement::total     24490059                      
system.ruby.L1Cache_Controller.MM.Fwd_GETX |        1267     46.82%     46.82% |         597     22.06%     68.88% |         344     12.71%     81.60% |         498     18.40%    100.00%
system.ruby.L1Cache_Controller.MM.Fwd_GETX::total         2706                      
system.ruby.L1Cache_Controller.MM.Fwd_GETS |        8004     32.12%     32.12% |       10136     40.67%     72.79% |        4871     19.55%     92.34% |        1910      7.66%    100.00%
system.ruby.L1Cache_Controller.MM.Fwd_GETS::total        24921                      
system.ruby.L1Cache_Controller.IS.Data_Exclusive |       57804      0.40%      0.40% |      160265      1.11%      1.51% |       49651      0.34%      1.86% |    14162290     98.14%    100.00%
system.ruby.L1Cache_Controller.IS.Data_Exclusive::total     14430010                      
system.ruby.L1Cache_Controller.IS.DataS_fromL1 |        5793     18.36%     18.36% |        4363     13.83%     32.20% |       14196     45.00%     77.20% |        7193     22.80%    100.00%
system.ruby.L1Cache_Controller.IS.DataS_fromL1::total        31545                      
system.ruby.L1Cache_Controller.IS.Data_all_Acks |       43893     15.74%     15.74% |       39188     14.05%     29.79% |       38024     13.63%     43.42% |      157808     56.58%    100.00%
system.ruby.L1Cache_Controller.IS.Data_all_Acks::total       278913                      
system.ruby.L1Cache_Controller.IM.Data   |        1368     56.88%     56.88% |         625     25.99%     82.87% |         113      4.70%     87.57% |         299     12.43%    100.00%
system.ruby.L1Cache_Controller.IM.Data::total         2405                      
system.ruby.L1Cache_Controller.IM.Data_all_Acks |       21167      0.21%      0.21% |       66624      0.65%      0.85% |       20603      0.20%      1.05% |    10211712     98.95%    100.00%
system.ruby.L1Cache_Controller.IM.Data_all_Acks::total     10320106                      
system.ruby.L1Cache_Controller.SM.Inv    |           0      0.00%      0.00% |           3     75.00%     75.00% |           1     25.00%    100.00% |           0      0.00%    100.00%
system.ruby.L1Cache_Controller.SM.Inv::total            4                      
system.ruby.L1Cache_Controller.SM.Ack    |        9955     59.26%     59.26% |        3261     19.41%     78.67% |        1718     10.23%     88.89% |        1866     11.11%    100.00%
system.ruby.L1Cache_Controller.SM.Ack::total        16800                      
system.ruby.L1Cache_Controller.SM.Ack_all |        5021     46.35%     46.35% |        2498     23.06%     69.41% |        1271     11.73%     81.15% |        2042     18.85%    100.00%
system.ruby.L1Cache_Controller.SM.Ack_all::total        10832                      
system.ruby.L1Cache_Controller.M_I.WB_Ack |       55387      0.22%      0.22% |      201591      0.82%      1.04% |       52696      0.21%      1.25% |    24373357     98.75%    100.00%
system.ruby.L1Cache_Controller.M_I.WB_Ack::total     24683031                      
system.ruby.L1Cache_Controller.S_IL0.L0_Invalidate_Own |       35728     13.43%     13.43% |       33216     12.49%     25.92% |       33962     12.77%     38.68% |      163124     61.32%    100.00%
system.ruby.L1Cache_Controller.S_IL0.L0_Invalidate_Own::total       266030                      
system.ruby.L1Cache_Controller.S_IL0.L0_Invalidate_Else |       16636     30.70%     30.70% |       17331     31.98%     62.68% |       19907     36.74%     99.42% |         315      0.58%    100.00%
system.ruby.L1Cache_Controller.S_IL0.L0_Invalidate_Else::total        54189                      
system.ruby.L1Cache_Controller.S_IL0.L0_Ack |       52364     16.35%     16.35% |       50547     15.79%     32.14% |       53869     16.82%     48.96% |      163439     51.04%    100.00%
system.ruby.L1Cache_Controller.S_IL0.L0_Ack::total       320219                      
system.ruby.L1Cache_Controller.E_IL0.WriteBack |           0      0.00%      0.00% |           0      0.00%      0.00% |           0      0.00%      0.00% |           1    100.00%    100.00%
system.ruby.L1Cache_Controller.E_IL0.WriteBack::total            1                      
system.ruby.L1Cache_Controller.E_IL0.L0_DataAck |         149     10.28%     10.28% |         439     30.28%     40.55% |         529     36.48%     77.03% |         333     22.97%    100.00%
system.ruby.L1Cache_Controller.E_IL0.L0_DataAck::total         1450                      
system.ruby.L1Cache_Controller.E_IL0.L0_Invalidate_Own |         450      0.23%      0.23% |        2532      1.31%      1.54% |         943      0.49%      2.03% |      189537     97.97%    100.00%
system.ruby.L1Cache_Controller.E_IL0.L0_Invalidate_Own::total       193462                      
system.ruby.L1Cache_Controller.E_IL0.L0_Invalidate_Else |        2655     24.21%     24.21% |        5380     49.05%     73.26% |        2805     25.57%     98.83% |         128      1.17%    100.00%
system.ruby.L1Cache_Controller.E_IL0.L0_Invalidate_Else::total        10968                      
system.ruby.L1Cache_Controller.E_IL0.L0_Ack |        2956      1.46%      1.46% |        7473      3.68%      5.14% |        3219      1.59%      6.72% |      189331     93.28%    100.00%
system.ruby.L1Cache_Controller.E_IL0.L0_Ack::total       202979                      
system.ruby.L1Cache_Controller.M_IL0.L0_DataAck |        6674     26.07%     26.07% |        6032     23.56%     49.63% |        5740     22.42%     72.05% |        7157     27.95%    100.00%
system.ruby.L1Cache_Controller.M_IL0.L0_DataAck::total        25603                      
system.ruby.L1Cache_Controller.M_IL0.L0_Invalidate_Own |        2390      3.72%      3.72% |        2721      4.23%      7.95% |        1671      2.60%     10.54% |       57533     89.46%    100.00%
system.ruby.L1Cache_Controller.M_IL0.L0_Invalidate_Own::total        64315                      
system.ruby.L1Cache_Controller.M_IL0.L0_Invalidate_Else |        7193     35.80%     35.80% |        6725     33.47%     69.28% |        5877     29.25%     98.53% |         295      1.47%    100.00%
system.ruby.L1Cache_Controller.M_IL0.L0_Invalidate_Else::total        20090                      
system.ruby.L1Cache_Controller.M_IL0.L0_Ack |        2909      4.95%      4.95% |        3414      5.81%     10.75% |        1808      3.07%     13.83% |       50671     86.17%    100.00%
system.ruby.L1Cache_Controller.M_IL0.L0_Ack::total        58802                      
system.ruby.L1Cache_Controller.MM_IL0.Fwd_GETS |           0      0.00%      0.00% |           0      0.00%      0.00% |           0      0.00%      0.00% |           1    100.00%    100.00%
system.ruby.L1Cache_Controller.MM_IL0.Fwd_GETS::total            1                      
system.ruby.L1Cache_Controller.MM_IL0.L0_Ack |           0      0.00%      0.00% |           0      0.00%      0.00% |           0      0.00%      0.00% |           1    100.00%    100.00%
system.ruby.L1Cache_Controller.MM_IL0.L0_Ack::total            1                      
system.ruby.L2Cache_Controller.L1_GETS       14740592      0.00%      0.00%
system.ruby.L2Cache_Controller.L1_GETX       10322513      0.00%      0.00%
system.ruby.L2Cache_Controller.L1_UPGRADE         8431      0.00%      0.00%
system.ruby.L2Cache_Controller.L1_PUTX       24683031      0.00%      0.00%
system.ruby.L2Cache_Controller.L2_Replacement      2720275      0.00%      0.00%
system.ruby.L2Cache_Controller.L2_Replacement_clean      3240120      0.00%      0.00%
system.ruby.L2Cache_Controller.Mem_Data       5977772      0.00%      0.00%
system.ruby.L2Cache_Controller.Mem_Ack        5960397      0.00%      0.00%
system.ruby.L2Cache_Controller.WB_Data          31873      0.00%      0.00%
system.ruby.L2Cache_Controller.WB_Data_clean        39922      0.00%      0.00%
system.ruby.L2Cache_Controller.Ack              43938      0.00%      0.00%
system.ruby.L2Cache_Controller.Ack_all          23078      0.00%      0.00%
system.ruby.L2Cache_Controller.Unblock          31545      0.00%      0.00%
system.ruby.L2Cache_Controller.Exclusive_Unblock     24760948      0.00%      0.00%
system.ruby.L2Cache_Controller.MEM_Inv              4      0.00%      0.00%
system.ruby.L2Cache_Controller.NP.L1_GETS      3265387      0.00%      0.00%
system.ruby.L2Cache_Controller.NP.L1_GETX      2712385      0.00%      0.00%
system.ruby.L2Cache_Controller.SS.L1_GETS       278871      0.00%      0.00%
system.ruby.L2Cache_Controller.SS.L1_GETX         2405      0.00%      0.00%
system.ruby.L2Cache_Controller.SS.L1_UPGRADE         8427      0.00%      0.00%
system.ruby.L2Cache_Controller.SS.L2_Replacement          590      0.00%      0.00%
system.ruby.L2Cache_Controller.SS.L2_Replacement_clean        19121      0.00%      0.00%
system.ruby.L2Cache_Controller.M.L1_GETS     11164644      0.00%      0.00%
system.ruby.L2Cache_Controller.M.L1_GETX      7604999      0.00%      0.00%
system.ruby.L2Cache_Controller.M.L2_Replacement      2718197      0.00%      0.00%
system.ruby.L2Cache_Controller.M.L2_Replacement_clean      3178872      0.00%      0.00%
system.ruby.L2Cache_Controller.MT.L1_GETS        31545      0.00%      0.00%
system.ruby.L2Cache_Controller.MT.L1_GETX         2722      0.00%      0.00%
system.ruby.L2Cache_Controller.MT.L1_PUTX     24683031      0.00%      0.00%
system.ruby.L2Cache_Controller.MT.L2_Replacement         1488      0.00%      0.00%
system.ruby.L2Cache_Controller.MT.L2_Replacement_clean        42127      0.00%      0.00%
system.ruby.L2Cache_Controller.MT.MEM_Inv            2      0.00%      0.00%
system.ruby.L2Cache_Controller.M_I.L1_GETS            2      0.00%      0.00%
system.ruby.L2Cache_Controller.M_I.Mem_Ack      5960397      0.00%      0.00%
system.ruby.L2Cache_Controller.MT_I.WB_Data         1082      0.00%      0.00%
system.ruby.L2Cache_Controller.MT_I.WB_Data_clean          224      0.00%      0.00%
system.ruby.L2Cache_Controller.MT_I.Ack_all          184      0.00%      0.00%
system.ruby.L2Cache_Controller.MT_I.MEM_Inv            2      0.00%      0.00%
system.ruby.L2Cache_Controller.MCT_I.WB_Data        24562      0.00%      0.00%
system.ruby.L2Cache_Controller.MCT_I.WB_Data_clean        14382      0.00%      0.00%
system.ruby.L2Cache_Controller.MCT_I.Ack_all         3183      0.00%      0.00%
system.ruby.L2Cache_Controller.I_I.Ack          43234      0.00%      0.00%
system.ruby.L2Cache_Controller.I_I.Ack_all        19121      0.00%      0.00%
system.ruby.L2Cache_Controller.S_I.Ack            704      0.00%      0.00%
system.ruby.L2Cache_Controller.S_I.Ack_all          590      0.00%      0.00%
system.ruby.L2Cache_Controller.ISS.L1_GETS           21      0.00%      0.00%
system.ruby.L2Cache_Controller.ISS.Mem_Data      3265366      0.00%      0.00%
system.ruby.L2Cache_Controller.IS.Mem_Data           21      0.00%      0.00%
system.ruby.L2Cache_Controller.IM.Mem_Data      2712385      0.00%      0.00%
system.ruby.L2Cache_Controller.SS_MB.L1_GETS           93      0.00%      0.00%
system.ruby.L2Cache_Controller.SS_MB.L1_GETX            2      0.00%      0.00%
system.ruby.L2Cache_Controller.SS_MB.L1_UPGRADE            4      0.00%      0.00%
system.ruby.L2Cache_Controller.SS_MB.Exclusive_Unblock        10832      0.00%      0.00%
system.ruby.L2Cache_Controller.MT_MB.L1_GETS           28      0.00%      0.00%
system.ruby.L2Cache_Controller.MT_MB.Exclusive_Unblock     24750116      0.00%      0.00%
system.ruby.L2Cache_Controller.MT_IIB.L1_GETS            1      0.00%      0.00%
system.ruby.L2Cache_Controller.MT_IIB.WB_Data         6223      0.00%      0.00%
system.ruby.L2Cache_Controller.MT_IIB.WB_Data_clean        25252      0.00%      0.00%
system.ruby.L2Cache_Controller.MT_IIB.Unblock           70      0.00%      0.00%
system.ruby.L2Cache_Controller.MT_IB.WB_Data            6      0.00%      0.00%
system.ruby.L2Cache_Controller.MT_IB.WB_Data_clean           64      0.00%      0.00%
system.ruby.L2Cache_Controller.MT_SB.Unblock        31475      0.00%      0.00%

---------- End Simulation Statistics   ----------
