
---------- Begin Simulation Statistics ----------
sim_seconds                                  3.965606                       # Number of seconds simulated
sim_ticks                                3965606412000                       # Number of ticks simulated
final_tick                               55190882442501                       # Number of ticks from beginning of simulation (restored from checkpoints and never reset)
sim_freq                                 1000000000000                       # Frequency of simulated ticks
host_inst_rate                                 151699                       # Simulator instruction rate (inst/s)
host_op_rate                                   212682                       # Simulator op (including micro ops) rate (op/s)
host_tick_rate                              267282659                       # Simulator tick rate (ticks/s)
host_mem_usage                                1931096                       # Number of bytes of host memory used
host_seconds                                 14836.75                       # Real time elapsed on the host
sim_insts                                  2250716965                       # Number of instructions simulated
sim_ops                                    3155507390                       # Number of ops (including micro ops) simulated
system.voltage_domain.voltage                       1                       # Voltage in Volts
system.clk_domain.clock                          1000                       # Clock period in ticks
system.mem_ctrls.bytes_read::ruby.dir_cntrl0    119699776                       # Number of bytes read from this memory
system.mem_ctrls.bytes_read::total          119699776                       # Number of bytes read from this memory
system.mem_ctrls.bytes_written::ruby.dir_cntrl0     50481792                       # Number of bytes written to this memory
system.mem_ctrls.bytes_written::total        50481792                       # Number of bytes written to this memory
system.mem_ctrls.num_reads::ruby.dir_cntrl0      1870309                       # Number of read requests responded to by this memory
system.mem_ctrls.num_reads::total             1870309                       # Number of read requests responded to by this memory
system.mem_ctrls.num_writes::ruby.dir_cntrl0       788778                       # Number of write requests responded to by this memory
system.mem_ctrls.num_writes::total             788778                       # Number of write requests responded to by this memory
system.mem_ctrls.bw_read::ruby.dir_cntrl0     30184482                       # Total read bandwidth from this memory (bytes/s)
system.mem_ctrls.bw_read::total              30184482                       # Total read bandwidth from this memory (bytes/s)
system.mem_ctrls.bw_write::ruby.dir_cntrl0     12729905                       # Write bandwidth from this memory (bytes/s)
system.mem_ctrls.bw_write::total             12729905                       # Write bandwidth from this memory (bytes/s)
system.mem_ctrls.bw_total::ruby.dir_cntrl0     42914387                       # Total bandwidth to/from this memory (bytes/s)
system.mem_ctrls.bw_total::total             42914387                       # Total bandwidth to/from this memory (bytes/s)
system.mem_ctrls.readReqs                     1870309                       # Number of read requests accepted
system.mem_ctrls.writeReqs                     788778                       # Number of write requests accepted
system.mem_ctrls.readBursts                   1870309                       # Number of DRAM read bursts, including those serviced by the write queue
system.mem_ctrls.writeBursts                   788778                       # Number of DRAM write bursts, including those merged in the write queue
system.mem_ctrls.bytesReadDRAM              119647104                       # Total number of bytes read from DRAM
system.mem_ctrls.bytesReadWrQ                   52672                       # Total number of bytes read from write queue
system.mem_ctrls.bytesWritten                50481024                       # Total number of bytes written to DRAM
system.mem_ctrls.bytesReadSys               119699776                       # Total read bytes from the system interface side
system.mem_ctrls.bytesWrittenSys             50481792                       # Total written bytes from the system interface side
system.mem_ctrls.servicedByWrQ                    823                       # Number of DRAM read bursts serviced by the write queue
system.mem_ctrls.mergedWrBursts                     0                       # Number of DRAM write bursts merged with an existing one
system.mem_ctrls.neitherReadNorWriteReqs            0                       # Number of requests that are neither read nor write
system.mem_ctrls.perBankRdBursts::0            118156                       # Per bank write bursts
system.mem_ctrls.perBankRdBursts::1            115967                       # Per bank write bursts
system.mem_ctrls.perBankRdBursts::2            123228                       # Per bank write bursts
system.mem_ctrls.perBankRdBursts::3            113601                       # Per bank write bursts
system.mem_ctrls.perBankRdBursts::4            110245                       # Per bank write bursts
system.mem_ctrls.perBankRdBursts::5            117765                       # Per bank write bursts
system.mem_ctrls.perBankRdBursts::6            120489                       # Per bank write bursts
system.mem_ctrls.perBankRdBursts::7            124323                       # Per bank write bursts
system.mem_ctrls.perBankRdBursts::8            125170                       # Per bank write bursts
system.mem_ctrls.perBankRdBursts::9            123795                       # Per bank write bursts
system.mem_ctrls.perBankRdBursts::10           120437                       # Per bank write bursts
system.mem_ctrls.perBankRdBursts::11           110970                       # Per bank write bursts
system.mem_ctrls.perBankRdBursts::12           110009                       # Per bank write bursts
system.mem_ctrls.perBankRdBursts::13           107666                       # Per bank write bursts
system.mem_ctrls.perBankRdBursts::14           110549                       # Per bank write bursts
system.mem_ctrls.perBankRdBursts::15           117116                       # Per bank write bursts
system.mem_ctrls.perBankWrBursts::0             50075                       # Per bank write bursts
system.mem_ctrls.perBankWrBursts::1             49162                       # Per bank write bursts
system.mem_ctrls.perBankWrBursts::2             51692                       # Per bank write bursts
system.mem_ctrls.perBankWrBursts::3             47731                       # Per bank write bursts
system.mem_ctrls.perBankWrBursts::4             46640                       # Per bank write bursts
system.mem_ctrls.perBankWrBursts::5             49413                       # Per bank write bursts
system.mem_ctrls.perBankWrBursts::6             50082                       # Per bank write bursts
system.mem_ctrls.perBankWrBursts::7             51314                       # Per bank write bursts
system.mem_ctrls.perBankWrBursts::8             51549                       # Per bank write bursts
system.mem_ctrls.perBankWrBursts::9             51648                       # Per bank write bursts
system.mem_ctrls.perBankWrBursts::10            51421                       # Per bank write bursts
system.mem_ctrls.perBankWrBursts::11            47746                       # Per bank write bursts
system.mem_ctrls.perBankWrBursts::12            47174                       # Per bank write bursts
system.mem_ctrls.perBankWrBursts::13            45926                       # Per bank write bursts
system.mem_ctrls.perBankWrBursts::14            47344                       # Per bank write bursts
system.mem_ctrls.perBankWrBursts::15            49849                       # Per bank write bursts
system.mem_ctrls.numRdRetry                         0                       # Number of times read queue was full causing retry
system.mem_ctrls.numWrRetry                         0                       # Number of times write queue was full causing retry
system.mem_ctrls.totGap                  3965606363000                       # Total gap between requests
system.mem_ctrls.readPktSize::0                     0                       # Read request sizes (log2)
system.mem_ctrls.readPktSize::1                     0                       # Read request sizes (log2)
system.mem_ctrls.readPktSize::2                     0                       # Read request sizes (log2)
system.mem_ctrls.readPktSize::3                     0                       # Read request sizes (log2)
system.mem_ctrls.readPktSize::4                     0                       # Read request sizes (log2)
system.mem_ctrls.readPktSize::5                     0                       # Read request sizes (log2)
system.mem_ctrls.readPktSize::6               1870309                       # Read request sizes (log2)
system.mem_ctrls.writePktSize::0                    0                       # Write request sizes (log2)
system.mem_ctrls.writePktSize::1                    0                       # Write request sizes (log2)
system.mem_ctrls.writePktSize::2                    0                       # Write request sizes (log2)
system.mem_ctrls.writePktSize::3                    0                       # Write request sizes (log2)
system.mem_ctrls.writePktSize::4                    0                       # Write request sizes (log2)
system.mem_ctrls.writePktSize::5                    0                       # Write request sizes (log2)
system.mem_ctrls.writePktSize::6               788778                       # Write request sizes (log2)
system.mem_ctrls.rdQLenPdf::0                 1868605                       # What read queue length does an incoming req see
system.mem_ctrls.rdQLenPdf::1                     840                       # What read queue length does an incoming req see
system.mem_ctrls.rdQLenPdf::2                      40                       # What read queue length does an incoming req see
system.mem_ctrls.rdQLenPdf::3                       1                       # What read queue length does an incoming req see
system.mem_ctrls.rdQLenPdf::4                       0                       # What read queue length does an incoming req see
system.mem_ctrls.rdQLenPdf::5                       0                       # What read queue length does an incoming req see
system.mem_ctrls.rdQLenPdf::6                       0                       # What read queue length does an incoming req see
system.mem_ctrls.rdQLenPdf::7                       0                       # What read queue length does an incoming req see
system.mem_ctrls.rdQLenPdf::8                       0                       # What read queue length does an incoming req see
system.mem_ctrls.rdQLenPdf::9                       0                       # What read queue length does an incoming req see
system.mem_ctrls.rdQLenPdf::10                      0                       # What read queue length does an incoming req see
system.mem_ctrls.rdQLenPdf::11                      0                       # What read queue length does an incoming req see
system.mem_ctrls.rdQLenPdf::12                      0                       # What read queue length does an incoming req see
system.mem_ctrls.rdQLenPdf::13                      0                       # What read queue length does an incoming req see
system.mem_ctrls.rdQLenPdf::14                      0                       # What read queue length does an incoming req see
system.mem_ctrls.rdQLenPdf::15                      0                       # What read queue length does an incoming req see
system.mem_ctrls.rdQLenPdf::16                      0                       # What read queue length does an incoming req see
system.mem_ctrls.rdQLenPdf::17                      0                       # What read queue length does an incoming req see
system.mem_ctrls.rdQLenPdf::18                      0                       # What read queue length does an incoming req see
system.mem_ctrls.rdQLenPdf::19                      0                       # What read queue length does an incoming req see
system.mem_ctrls.rdQLenPdf::20                      0                       # What read queue length does an incoming req see
system.mem_ctrls.rdQLenPdf::21                      0                       # What read queue length does an incoming req see
system.mem_ctrls.rdQLenPdf::22                      0                       # What read queue length does an incoming req see
system.mem_ctrls.rdQLenPdf::23                      0                       # What read queue length does an incoming req see
system.mem_ctrls.rdQLenPdf::24                      0                       # What read queue length does an incoming req see
system.mem_ctrls.rdQLenPdf::25                      0                       # What read queue length does an incoming req see
system.mem_ctrls.rdQLenPdf::26                      0                       # What read queue length does an incoming req see
system.mem_ctrls.rdQLenPdf::27                      0                       # What read queue length does an incoming req see
system.mem_ctrls.rdQLenPdf::28                      0                       # What read queue length does an incoming req see
system.mem_ctrls.rdQLenPdf::29                      0                       # What read queue length does an incoming req see
system.mem_ctrls.rdQLenPdf::30                      0                       # What read queue length does an incoming req see
system.mem_ctrls.rdQLenPdf::31                      0                       # What read queue length does an incoming req see
system.mem_ctrls.wrQLenPdf::0                       0                       # What write queue length does an incoming req see
system.mem_ctrls.wrQLenPdf::1                       0                       # What write queue length does an incoming req see
system.mem_ctrls.wrQLenPdf::2                       0                       # What write queue length does an incoming req see
system.mem_ctrls.wrQLenPdf::3                       0                       # What write queue length does an incoming req see
system.mem_ctrls.wrQLenPdf::4                       0                       # What write queue length does an incoming req see
system.mem_ctrls.wrQLenPdf::5                       1                       # What write queue length does an incoming req see
system.mem_ctrls.wrQLenPdf::6                       1                       # What write queue length does an incoming req see
system.mem_ctrls.wrQLenPdf::7                       1                       # What write queue length does an incoming req see
system.mem_ctrls.wrQLenPdf::8                       1                       # What write queue length does an incoming req see
system.mem_ctrls.wrQLenPdf::9                       1                       # What write queue length does an incoming req see
system.mem_ctrls.wrQLenPdf::10                      1                       # What write queue length does an incoming req see
system.mem_ctrls.wrQLenPdf::11                      1                       # What write queue length does an incoming req see
system.mem_ctrls.wrQLenPdf::12                      1                       # What write queue length does an incoming req see
system.mem_ctrls.wrQLenPdf::13                      1                       # What write queue length does an incoming req see
system.mem_ctrls.wrQLenPdf::14                      1                       # What write queue length does an incoming req see
system.mem_ctrls.wrQLenPdf::15                  25563                       # What write queue length does an incoming req see
system.mem_ctrls.wrQLenPdf::16                  28226                       # What write queue length does an incoming req see
system.mem_ctrls.wrQLenPdf::17                  41058                       # What write queue length does an incoming req see
system.mem_ctrls.wrQLenPdf::18                  46788                       # What write queue length does an incoming req see
system.mem_ctrls.wrQLenPdf::19                  47002                       # What write queue length does an incoming req see
system.mem_ctrls.wrQLenPdf::20                  46632                       # What write queue length does an incoming req see
system.mem_ctrls.wrQLenPdf::21                  46393                       # What write queue length does an incoming req see
system.mem_ctrls.wrQLenPdf::22                  46219                       # What write queue length does an incoming req see
system.mem_ctrls.wrQLenPdf::23                  46197                       # What write queue length does an incoming req see
system.mem_ctrls.wrQLenPdf::24                  46226                       # What write queue length does an incoming req see
system.mem_ctrls.wrQLenPdf::25                  46180                       # What write queue length does an incoming req see
system.mem_ctrls.wrQLenPdf::26                  46180                       # What write queue length does an incoming req see
system.mem_ctrls.wrQLenPdf::27                  46151                       # What write queue length does an incoming req see
system.mem_ctrls.wrQLenPdf::28                  46215                       # What write queue length does an incoming req see
system.mem_ctrls.wrQLenPdf::29                  46194                       # What write queue length does an incoming req see
system.mem_ctrls.wrQLenPdf::30                  45843                       # What write queue length does an incoming req see
system.mem_ctrls.wrQLenPdf::31                  45798                       # What write queue length does an incoming req see
system.mem_ctrls.wrQLenPdf::32                  45732                       # What write queue length does an incoming req see
system.mem_ctrls.wrQLenPdf::33                    146                       # What write queue length does an incoming req see
system.mem_ctrls.wrQLenPdf::34                     22                       # What write queue length does an incoming req see
system.mem_ctrls.wrQLenPdf::35                      3                       # What write queue length does an incoming req see
system.mem_ctrls.wrQLenPdf::36                      0                       # What write queue length does an incoming req see
system.mem_ctrls.wrQLenPdf::37                      0                       # What write queue length does an incoming req see
system.mem_ctrls.wrQLenPdf::38                      0                       # What write queue length does an incoming req see
system.mem_ctrls.wrQLenPdf::39                      0                       # What write queue length does an incoming req see
system.mem_ctrls.wrQLenPdf::40                      0                       # What write queue length does an incoming req see
system.mem_ctrls.wrQLenPdf::41                      0                       # What write queue length does an incoming req see
system.mem_ctrls.wrQLenPdf::42                      0                       # What write queue length does an incoming req see
system.mem_ctrls.wrQLenPdf::43                      0                       # What write queue length does an incoming req see
system.mem_ctrls.wrQLenPdf::44                      0                       # What write queue length does an incoming req see
system.mem_ctrls.wrQLenPdf::45                      0                       # What write queue length does an incoming req see
system.mem_ctrls.wrQLenPdf::46                      0                       # What write queue length does an incoming req see
system.mem_ctrls.wrQLenPdf::47                      0                       # What write queue length does an incoming req see
system.mem_ctrls.wrQLenPdf::48                      0                       # What write queue length does an incoming req see
system.mem_ctrls.wrQLenPdf::49                      0                       # What write queue length does an incoming req see
system.mem_ctrls.wrQLenPdf::50                      0                       # What write queue length does an incoming req see
system.mem_ctrls.wrQLenPdf::51                      0                       # What write queue length does an incoming req see
system.mem_ctrls.wrQLenPdf::52                      0                       # What write queue length does an incoming req see
system.mem_ctrls.wrQLenPdf::53                      0                       # What write queue length does an incoming req see
system.mem_ctrls.wrQLenPdf::54                      0                       # What write queue length does an incoming req see
system.mem_ctrls.wrQLenPdf::55                      0                       # What write queue length does an incoming req see
system.mem_ctrls.wrQLenPdf::56                      0                       # What write queue length does an incoming req see
system.mem_ctrls.wrQLenPdf::57                      0                       # What write queue length does an incoming req see
system.mem_ctrls.wrQLenPdf::58                      0                       # What write queue length does an incoming req see
system.mem_ctrls.wrQLenPdf::59                      0                       # What write queue length does an incoming req see
system.mem_ctrls.wrQLenPdf::60                      0                       # What write queue length does an incoming req see
system.mem_ctrls.wrQLenPdf::61                      0                       # What write queue length does an incoming req see
system.mem_ctrls.wrQLenPdf::62                      0                       # What write queue length does an incoming req see
system.mem_ctrls.wrQLenPdf::63                      0                       # What write queue length does an incoming req see
system.mem_ctrls.bytesPerActivate::samples      1355703                       # Bytes accessed per row activation
system.mem_ctrls.bytesPerActivate::mean    125.490471                       # Bytes accessed per row activation
system.mem_ctrls.bytesPerActivate::gmean    93.495193                       # Bytes accessed per row activation
system.mem_ctrls.bytesPerActivate::stdev   156.442018                       # Bytes accessed per row activation
system.mem_ctrls.bytesPerActivate::0-127       890116     65.66%     65.66% # Bytes accessed per row activation
system.mem_ctrls.bytesPerActivate::128-255       341907     25.22%     90.88% # Bytes accessed per row activation
system.mem_ctrls.bytesPerActivate::256-383        59216      4.37%     95.24% # Bytes accessed per row activation
system.mem_ctrls.bytesPerActivate::384-511        18411      1.36%     96.60% # Bytes accessed per row activation
system.mem_ctrls.bytesPerActivate::512-639         9994      0.74%     97.34% # Bytes accessed per row activation
system.mem_ctrls.bytesPerActivate::640-767         5123      0.38%     97.72% # Bytes accessed per row activation
system.mem_ctrls.bytesPerActivate::768-895         3194      0.24%     97.95% # Bytes accessed per row activation
system.mem_ctrls.bytesPerActivate::896-1023         3339      0.25%     98.20% # Bytes accessed per row activation
system.mem_ctrls.bytesPerActivate::1024-1151        24403      1.80%    100.00% # Bytes accessed per row activation
system.mem_ctrls.bytesPerActivate::total      1355703                       # Bytes accessed per row activation
system.mem_ctrls.rdPerTurnAround::samples        45725                       # Reads before turning the bus around for writes
system.mem_ctrls.rdPerTurnAround::mean      41.260755                       # Reads before turning the bus around for writes
system.mem_ctrls.rdPerTurnAround::stdev     95.106906                       # Reads before turning the bus around for writes
system.mem_ctrls.rdPerTurnAround::0-1023        45722     99.99%     99.99% # Reads before turning the bus around for writes
system.mem_ctrls.rdPerTurnAround::1024-2047            1      0.00%    100.00% # Reads before turning the bus around for writes
system.mem_ctrls.rdPerTurnAround::2048-3071            1      0.00%    100.00% # Reads before turning the bus around for writes
system.mem_ctrls.rdPerTurnAround::18432-19455            1      0.00%    100.00% # Reads before turning the bus around for writes
system.mem_ctrls.rdPerTurnAround::total         45725                       # Reads before turning the bus around for writes
system.mem_ctrls.wrPerTurnAround::samples        45725                       # Writes before turning the bus around for reads
system.mem_ctrls.wrPerTurnAround::mean      17.250213                       # Writes before turning the bus around for reads
system.mem_ctrls.wrPerTurnAround::gmean     17.216917                       # Writes before turning the bus around for reads
system.mem_ctrls.wrPerTurnAround::stdev      1.074313                       # Writes before turning the bus around for reads
system.mem_ctrls.wrPerTurnAround::16            17597     38.48%     38.48% # Writes before turning the bus around for reads
system.mem_ctrls.wrPerTurnAround::17             2311      5.05%     43.54% # Writes before turning the bus around for reads
system.mem_ctrls.wrPerTurnAround::18            23305     50.97%     94.51% # Writes before turning the bus around for reads
system.mem_ctrls.wrPerTurnAround::19             2071      4.53%     99.04% # Writes before turning the bus around for reads
system.mem_ctrls.wrPerTurnAround::20              301      0.66%     99.69% # Writes before turning the bus around for reads
system.mem_ctrls.wrPerTurnAround::21               80      0.17%     99.87% # Writes before turning the bus around for reads
system.mem_ctrls.wrPerTurnAround::22               29      0.06%     99.93% # Writes before turning the bus around for reads
system.mem_ctrls.wrPerTurnAround::23               19      0.04%     99.97% # Writes before turning the bus around for reads
system.mem_ctrls.wrPerTurnAround::24                3      0.01%     99.98% # Writes before turning the bus around for reads
system.mem_ctrls.wrPerTurnAround::25                4      0.01%     99.99% # Writes before turning the bus around for reads
system.mem_ctrls.wrPerTurnAround::26                2      0.00%     99.99% # Writes before turning the bus around for reads
system.mem_ctrls.wrPerTurnAround::28                1      0.00%    100.00% # Writes before turning the bus around for reads
system.mem_ctrls.wrPerTurnAround::30                1      0.00%    100.00% # Writes before turning the bus around for reads
system.mem_ctrls.wrPerTurnAround::31                1      0.00%    100.00% # Writes before turning the bus around for reads
system.mem_ctrls.wrPerTurnAround::total         45725                       # Writes before turning the bus around for reads
system.mem_ctrls.totQLat                  21057347747                       # Total ticks spent queuing
system.mem_ctrls.totMemAccLat             56110210247                       # Total ticks spent from burst creation until serviced by the DRAM
system.mem_ctrls.totBusLat                 9347430000                       # Total ticks spent in databus transfers
system.mem_ctrls.avgQLat                     11263.71                       # Average queueing delay per DRAM burst
system.mem_ctrls.avgBusLat                    5000.00                       # Average bus latency per DRAM burst
system.mem_ctrls.avgMemAccLat                30013.71                       # Average memory access latency per DRAM burst
system.mem_ctrls.avgRdBW                        30.17                       # Average DRAM read bandwidth in MiByte/s
system.mem_ctrls.avgWrBW                        12.73                       # Average achieved write bandwidth in MiByte/s
system.mem_ctrls.avgRdBWSys                     30.18                       # Average system read bandwidth in MiByte/s
system.mem_ctrls.avgWrBWSys                     12.73                       # Average system write bandwidth in MiByte/s
system.mem_ctrls.peakBW                      12800.00                       # Theoretical peak bandwidth in MiByte/s
system.mem_ctrls.busUtil                         0.34                       # Data bus utilization in percentage
system.mem_ctrls.busUtilRead                     0.24                       # Data bus utilization in percentage for reads
system.mem_ctrls.busUtilWrite                    0.10                       # Data bus utilization in percentage for writes
system.mem_ctrls.avgRdQLen                       1.00                       # Average read queue length when enqueuing
system.mem_ctrls.avgWrQLen                      24.62                       # Average write queue length when enqueuing
system.mem_ctrls.readRowHits                  1112364                       # Number of row buffer hits during reads
system.mem_ctrls.writeRowHits                  190179                       # Number of row buffer hits during writes
system.mem_ctrls.readRowHitRate                 59.50                       # Row buffer hit rate for reads
system.mem_ctrls.writeRowHitRate                24.11                       # Row buffer hit rate for writes
system.mem_ctrls.avgGap                    1491341.34                       # Average gap between requests
system.mem_ctrls.pageHitRate                    49.00                       # Row buffer hit rate, read and write combined
system.mem_ctrls_0.actEnergy               5204319120                       # Energy for activate commands per rank (pJ)
system.mem_ctrls_0.preEnergy               2839658250                       # Energy for precharge commands per rank (pJ)
system.mem_ctrls_0.readEnergy              7427908800                       # Energy for read commands per rank (pJ)
system.mem_ctrls_0.writeEnergy             2566702080                       # Energy for write commands per rank (pJ)
system.mem_ctrls_0.refreshEnergy         259251174000                       # Energy for refresh commands per rank (pJ)
system.mem_ctrls_0.actBackEnergy         499491926820                       # Energy for active background per rank (pJ)
system.mem_ctrls_0.preBackEnergy         1943390699250                       # Energy for precharge background per rank (pJ)
system.mem_ctrls_0.totalEnergy           2720172388320                       # Total energy per rank (pJ)
system.mem_ctrls_0.averagePower            685.313871                       # Core power per rank (mW)
system.mem_ctrls_0.memoryStateTime::IDLE 3228942762750                       # Time in different power states
system.mem_ctrls_0.memoryStateTime::REF  132420340000                       # Time in different power states
system.mem_ctrls_0.memoryStateTime::PRE_PDN            0                       # Time in different power states
system.mem_ctrls_0.memoryStateTime::ACT  604243232750                       # Time in different power states
system.mem_ctrls_0.memoryStateTime::ACT_PDN            0                       # Time in different power states
system.mem_ctrls_1.actEnergy               5075269920                       # Energy for activate commands per rank (pJ)
system.mem_ctrls_1.preEnergy               2769244500                       # Energy for precharge commands per rank (pJ)
system.mem_ctrls_1.readEnergy              7287937800                       # Energy for read commands per rank (pJ)
system.mem_ctrls_1.writeEnergy             2544384960                       # Energy for write commands per rank (pJ)
system.mem_ctrls_1.refreshEnergy         259251174000                       # Energy for refresh commands per rank (pJ)
system.mem_ctrls_1.actBackEnergy         497649807945                       # Energy for active background per rank (pJ)
system.mem_ctrls_1.preBackEnergy         1945006593000                       # Energy for precharge background per rank (pJ)
system.mem_ctrls_1.totalEnergy           2719584412125                       # Total energy per rank (pJ)
system.mem_ctrls_1.averagePower            685.165738                       # Core power per rank (mW)
system.mem_ctrls_1.memoryStateTime::IDLE 3231614648000                       # Time in different power states
system.mem_ctrls_1.memoryStateTime::REF  132420340000                       # Time in different power states
system.mem_ctrls_1.memoryStateTime::PRE_PDN            0                       # Time in different power states
system.mem_ctrls_1.memoryStateTime::ACT  601572871750                       # Time in different power states
system.mem_ctrls_1.memoryStateTime::ACT_PDN            0                       # Time in different power states
system.cpu_voltage_domain.voltage                   1                       # Voltage in Volts
system.cpu_clk_domain.clock                       500                       # Clock period in ticks
system.cpu0.apic_clk_domain.clock                8000                       # Clock period in ticks
system.cpu0.numCycles                      7929237293                       # number of cpu cycles simulated
system.cpu0.numWorkItemsStarted                     0                       # number of work items this cpu started
system.cpu0.numWorkItemsCompleted                   0                       # number of work items this cpu completed
system.cpu0.kern.inst.arm                           0                       # number of arm instructions executed
system.cpu0.kern.inst.quiesce                       0                       # number of quiesce instructions executed
system.cpu0.committedInsts                    4178548                       # Number of instructions committed
system.cpu0.committedOps                      8786182                       # Number of ops (including micro ops) committed
system.cpu0.num_int_alu_accesses              8613236                       # Number of integer alu accesses
system.cpu0.num_fp_alu_accesses                  1929                       # Number of float alu accesses
system.cpu0.num_func_calls                     243789                       # number of times a function call or return occured
system.cpu0.num_conditional_control_insts       623160                       # number of instructions that are conditional controls
system.cpu0.num_int_insts                     8613236                       # number of integer instructions
system.cpu0.num_fp_insts                         1929                       # number of float instructions
system.cpu0.num_int_register_reads           17456959                       # number of times the integer registers were read
system.cpu0.num_int_register_writes           7093763                       # number of times the integer registers were written
system.cpu0.num_fp_register_reads                3243                       # number of times the floating registers were read
system.cpu0.num_fp_register_writes               1535                       # number of times the floating registers were written
system.cpu0.num_cc_register_reads             4940361                       # number of times the CC registers were read
system.cpu0.num_cc_register_writes            2732687                       # number of times the CC registers were written
system.cpu0.num_mem_refs                      2053443                       # number of memory refs
system.cpu0.num_load_insts                    1275351                       # Number of load instructions
system.cpu0.num_store_insts                    778092                       # Number of store instructions
system.cpu0.num_idle_cycles              7910443186.462462                       # Number of idle cycles
system.cpu0.num_busy_cycles              18794106.537538                       # Number of busy cycles
system.cpu0.not_idle_fraction                0.002370                       # Percentage of non-idle cycles
system.cpu0.idle_fraction                    0.997630                       # Percentage of idle cycles
system.cpu0.Branches                           939395                       # Number of branches fetched
system.cpu0.op_class::No_OpClass               125603      1.43%      1.43% # Class of executed instruction
system.cpu0.op_class::IntAlu                  6547556     74.52%     75.95% # Class of executed instruction
system.cpu0.op_class::IntMult                   17292      0.20%     76.15% # Class of executed instruction
system.cpu0.op_class::IntDiv                    40922      0.47%     76.61% # Class of executed instruction
system.cpu0.op_class::FloatAdd                   1458      0.02%     76.63% # Class of executed instruction
system.cpu0.op_class::FloatCmp                      0      0.00%     76.63% # Class of executed instruction
system.cpu0.op_class::FloatCvt                      0      0.00%     76.63% # Class of executed instruction
system.cpu0.op_class::FloatMult                     0      0.00%     76.63% # Class of executed instruction
system.cpu0.op_class::FloatDiv                      0      0.00%     76.63% # Class of executed instruction
system.cpu0.op_class::FloatSqrt                     0      0.00%     76.63% # Class of executed instruction
system.cpu0.op_class::SimdAdd                       0      0.00%     76.63% # Class of executed instruction
system.cpu0.op_class::SimdAddAcc                    0      0.00%     76.63% # Class of executed instruction
system.cpu0.op_class::SimdAlu                       0      0.00%     76.63% # Class of executed instruction
system.cpu0.op_class::SimdCmp                       0      0.00%     76.63% # Class of executed instruction
system.cpu0.op_class::SimdCvt                       0      0.00%     76.63% # Class of executed instruction
system.cpu0.op_class::SimdMisc                      0      0.00%     76.63% # Class of executed instruction
system.cpu0.op_class::SimdMult                      0      0.00%     76.63% # Class of executed instruction
system.cpu0.op_class::SimdMultAcc                   0      0.00%     76.63% # Class of executed instruction
system.cpu0.op_class::SimdShift                     0      0.00%     76.63% # Class of executed instruction
system.cpu0.op_class::SimdShiftAcc                  0      0.00%     76.63% # Class of executed instruction
system.cpu0.op_class::SimdSqrt                      0      0.00%     76.63% # Class of executed instruction
system.cpu0.op_class::SimdFloatAdd                  0      0.00%     76.63% # Class of executed instruction
system.cpu0.op_class::SimdFloatAlu                  0      0.00%     76.63% # Class of executed instruction
system.cpu0.op_class::SimdFloatCmp                  0      0.00%     76.63% # Class of executed instruction
system.cpu0.op_class::SimdFloatCvt                  0      0.00%     76.63% # Class of executed instruction
system.cpu0.op_class::SimdFloatDiv                  0      0.00%     76.63% # Class of executed instruction
system.cpu0.op_class::SimdFloatMisc                 0      0.00%     76.63% # Class of executed instruction
system.cpu0.op_class::SimdFloatMult                 0      0.00%     76.63% # Class of executed instruction
system.cpu0.op_class::SimdFloatMultAcc              0      0.00%     76.63% # Class of executed instruction
system.cpu0.op_class::SimdFloatSqrt                 0      0.00%     76.63% # Class of executed instruction
system.cpu0.op_class::MemRead                 1275351     14.52%     91.14% # Class of executed instruction
system.cpu0.op_class::MemWrite                 778092      8.86%    100.00% # Class of executed instruction
system.cpu0.op_class::IprAccess                     0      0.00%    100.00% # Class of executed instruction
system.cpu0.op_class::InstPrefetch                  0      0.00%    100.00% # Class of executed instruction
system.cpu0.op_class::total                   8786274                       # Class of executed instruction
system.cpu1.apic_clk_domain.clock                8000                       # Clock period in ticks
system.cpu1.numCycles                      7931510090                       # number of cpu cycles simulated
system.cpu1.numWorkItemsStarted                     0                       # number of work items this cpu started
system.cpu1.numWorkItemsCompleted                   0                       # number of work items this cpu completed
system.cpu1.kern.inst.arm                           0                       # number of arm instructions executed
system.cpu1.kern.inst.quiesce                       0                       # number of quiesce instructions executed
system.cpu1.committedInsts                    2867830                       # Number of instructions committed
system.cpu1.committedOps                      6180290                       # Number of ops (including micro ops) committed
system.cpu1.num_int_alu_accesses              6042866                       # Number of integer alu accesses
system.cpu1.num_fp_alu_accesses                    39                       # Number of float alu accesses
system.cpu1.num_func_calls                     169396                       # number of times a function call or return occured
system.cpu1.num_conditional_control_insts       436443                       # number of instructions that are conditional controls
system.cpu1.num_int_insts                     6042866                       # number of integer instructions
system.cpu1.num_fp_insts                           39                       # number of float instructions
system.cpu1.num_int_register_reads           12291662                       # number of times the integer registers were read
system.cpu1.num_int_register_writes           5015858                       # number of times the integer registers were written
system.cpu1.num_fp_register_reads                  63                       # number of times the floating registers were read
system.cpu1.num_fp_register_writes                 31                       # number of times the floating registers were written
system.cpu1.num_cc_register_reads             3493289                       # number of times the CC registers were read
system.cpu1.num_cc_register_writes            1828364                       # number of times the CC registers were written
system.cpu1.num_mem_refs                      1471989                       # number of memory refs
system.cpu1.num_load_insts                     913752                       # Number of load instructions
system.cpu1.num_store_insts                    558237                       # Number of store instructions
system.cpu1.num_idle_cycles              7919209785.995461                       # Number of idle cycles
system.cpu1.num_busy_cycles              12300304.004538                       # Number of busy cycles
system.cpu1.not_idle_fraction                0.001551                       # Percentage of non-idle cycles
system.cpu1.idle_fraction                    0.998449                       # Percentage of idle cycles
system.cpu1.Branches                           661263                       # Number of branches fetched
system.cpu1.op_class::No_OpClass               117911      1.91%      1.91% # Class of executed instruction
system.cpu1.op_class::IntAlu                  4535802     73.39%     75.30% # Class of executed instruction
system.cpu1.op_class::IntMult                   12462      0.20%     75.50% # Class of executed instruction
system.cpu1.op_class::IntDiv                    42118      0.68%     76.18% # Class of executed instruction
system.cpu1.op_class::FloatAdd                     30      0.00%     76.18% # Class of executed instruction
system.cpu1.op_class::FloatCmp                      0      0.00%     76.18% # Class of executed instruction
system.cpu1.op_class::FloatCvt                      0      0.00%     76.18% # Class of executed instruction
system.cpu1.op_class::FloatMult                     0      0.00%     76.18% # Class of executed instruction
system.cpu1.op_class::FloatDiv                      0      0.00%     76.18% # Class of executed instruction
system.cpu1.op_class::FloatSqrt                     0      0.00%     76.18% # Class of executed instruction
system.cpu1.op_class::SimdAdd                       0      0.00%     76.18% # Class of executed instruction
system.cpu1.op_class::SimdAddAcc                    0      0.00%     76.18% # Class of executed instruction
system.cpu1.op_class::SimdAlu                       0      0.00%     76.18% # Class of executed instruction
system.cpu1.op_class::SimdCmp                       0      0.00%     76.18% # Class of executed instruction
system.cpu1.op_class::SimdCvt                       0      0.00%     76.18% # Class of executed instruction
system.cpu1.op_class::SimdMisc                      0      0.00%     76.18% # Class of executed instruction
system.cpu1.op_class::SimdMult                      0      0.00%     76.18% # Class of executed instruction
system.cpu1.op_class::SimdMultAcc                   0      0.00%     76.18% # Class of executed instruction
system.cpu1.op_class::SimdShift                     0      0.00%     76.18% # Class of executed instruction
system.cpu1.op_class::SimdShiftAcc                  0      0.00%     76.18% # Class of executed instruction
system.cpu1.op_class::SimdSqrt                      0      0.00%     76.18% # Class of executed instruction
system.cpu1.op_class::SimdFloatAdd                  0      0.00%     76.18% # Class of executed instruction
system.cpu1.op_class::SimdFloatAlu                  0      0.00%     76.18% # Class of executed instruction
system.cpu1.op_class::SimdFloatCmp                  0      0.00%     76.18% # Class of executed instruction
system.cpu1.op_class::SimdFloatCvt                  0      0.00%     76.18% # Class of executed instruction
system.cpu1.op_class::SimdFloatDiv                  0      0.00%     76.18% # Class of executed instruction
system.cpu1.op_class::SimdFloatMisc                 0      0.00%     76.18% # Class of executed instruction
system.cpu1.op_class::SimdFloatMult                 0      0.00%     76.18% # Class of executed instruction
system.cpu1.op_class::SimdFloatMultAcc              0      0.00%     76.18% # Class of executed instruction
system.cpu1.op_class::SimdFloatSqrt                 0      0.00%     76.18% # Class of executed instruction
system.cpu1.op_class::MemRead                  913752     14.78%     90.97% # Class of executed instruction
system.cpu1.op_class::MemWrite                 558237      9.03%    100.00% # Class of executed instruction
system.cpu1.op_class::IprAccess                     0      0.00%    100.00% # Class of executed instruction
system.cpu1.op_class::InstPrefetch                  0      0.00%    100.00% # Class of executed instruction
system.cpu1.op_class::total                   6180312                       # Class of executed instruction
system.cpu2.apic_clk_domain.clock                8000                       # Clock period in ticks
system.cpu2.numCycles                      7932400717                       # number of cpu cycles simulated
system.cpu2.numWorkItemsStarted                     0                       # number of work items this cpu started
system.cpu2.numWorkItemsCompleted                   0                       # number of work items this cpu completed
system.cpu2.kern.inst.arm                           0                       # number of arm instructions executed
system.cpu2.kern.inst.quiesce                       0                       # number of quiesce instructions executed
system.cpu2.committedInsts                 2239442993                       # Number of instructions committed
system.cpu2.committedOps                   3131851392                       # Number of ops (including micro ops) committed
system.cpu2.num_int_alu_accesses           1364896877                       # Number of integer alu accesses
system.cpu2.num_fp_alu_accesses            2127680265                       # Number of float alu accesses
system.cpu2.num_func_calls                    4833473                       # number of times a function call or return occured
system.cpu2.num_conditional_control_insts    125338271                       # number of instructions that are conditional controls
system.cpu2.num_int_insts                  1364896877                       # number of integer instructions
system.cpu2.num_fp_insts                   2127680265                       # number of float instructions
system.cpu2.num_int_register_reads         2745303628                       # number of times the integer registers were read
system.cpu2.num_int_register_writes         828393688                       # number of times the integer registers were written
system.cpu2.num_fp_register_reads          4601234005                       # number of times the floating registers were read
system.cpu2.num_fp_register_writes         2077617833                       # number of times the floating registers were written
system.cpu2.num_cc_register_reads           735872224                       # number of times the CC registers were read
system.cpu2.num_cc_register_writes          430121336                       # number of times the CC registers were written
system.cpu2.num_mem_refs                    408307215                       # number of memory refs
system.cpu2.num_load_insts                  353595460                       # Number of load instructions
system.cpu2.num_store_insts                  54711755                       # Number of store instructions
system.cpu2.num_idle_cycles              4918786.596209                       # Number of idle cycles
system.cpu2.num_busy_cycles              7927481930.403791                       # Number of busy cycles
system.cpu2.not_idle_fraction                0.999380                       # Percentage of non-idle cycles
system.cpu2.idle_fraction                    0.000620                       # Percentage of idle cycles
system.cpu2.Branches                        163299797                       # Number of branches fetched
system.cpu2.op_class::No_OpClass              2281812      0.07%      0.07% # Class of executed instruction
system.cpu2.op_class::IntAlu               1676597397     53.53%     53.61% # Class of executed instruction
system.cpu2.op_class::IntMult                   78994      0.00%     53.61% # Class of executed instruction
system.cpu2.op_class::IntDiv                    98985      0.00%     53.61% # Class of executed instruction
system.cpu2.op_class::FloatAdd             1044495651     33.35%     86.96% # Class of executed instruction
system.cpu2.op_class::FloatCmp                      0      0.00%     86.96% # Class of executed instruction
system.cpu2.op_class::FloatCvt                      0      0.00%     86.96% # Class of executed instruction
system.cpu2.op_class::FloatMult                     0      0.00%     86.96% # Class of executed instruction
system.cpu2.op_class::FloatDiv                      0      0.00%     86.96% # Class of executed instruction
system.cpu2.op_class::FloatSqrt                     0      0.00%     86.96% # Class of executed instruction
system.cpu2.op_class::SimdAdd                       0      0.00%     86.96% # Class of executed instruction
system.cpu2.op_class::SimdAddAcc                    0      0.00%     86.96% # Class of executed instruction
system.cpu2.op_class::SimdAlu                       0      0.00%     86.96% # Class of executed instruction
system.cpu2.op_class::SimdCmp                       0      0.00%     86.96% # Class of executed instruction
system.cpu2.op_class::SimdCvt                       0      0.00%     86.96% # Class of executed instruction
system.cpu2.op_class::SimdMisc                      0      0.00%     86.96% # Class of executed instruction
system.cpu2.op_class::SimdMult                      0      0.00%     86.96% # Class of executed instruction
system.cpu2.op_class::SimdMultAcc                   0      0.00%     86.96% # Class of executed instruction
system.cpu2.op_class::SimdShift                     0      0.00%     86.96% # Class of executed instruction
system.cpu2.op_class::SimdShiftAcc                  0      0.00%     86.96% # Class of executed instruction
system.cpu2.op_class::SimdSqrt                      0      0.00%     86.96% # Class of executed instruction
system.cpu2.op_class::SimdFloatAdd                  0      0.00%     86.96% # Class of executed instruction
system.cpu2.op_class::SimdFloatAlu                  0      0.00%     86.96% # Class of executed instruction
system.cpu2.op_class::SimdFloatCmp                  0      0.00%     86.96% # Class of executed instruction
system.cpu2.op_class::SimdFloatCvt                  0      0.00%     86.96% # Class of executed instruction
system.cpu2.op_class::SimdFloatDiv                  0      0.00%     86.96% # Class of executed instruction
system.cpu2.op_class::SimdFloatMisc                 0      0.00%     86.96% # Class of executed instruction
system.cpu2.op_class::SimdFloatMult                 0      0.00%     86.96% # Class of executed instruction
system.cpu2.op_class::SimdFloatMultAcc              0      0.00%     86.96% # Class of executed instruction
system.cpu2.op_class::SimdFloatSqrt                 0      0.00%     86.96% # Class of executed instruction
system.cpu2.op_class::MemRead               353595460     11.29%     98.25% # Class of executed instruction
system.cpu2.op_class::MemWrite               54711755      1.75%    100.00% # Class of executed instruction
system.cpu2.op_class::IprAccess                     0      0.00%    100.00% # Class of executed instruction
system.cpu2.op_class::InstPrefetch                  0      0.00%    100.00% # Class of executed instruction
system.cpu2.op_class::total                3131860054                       # Class of executed instruction
system.cpu3.apic_clk_domain.clock                8000                       # Clock period in ticks
system.cpu3.numCycles                      7928892767                       # number of cpu cycles simulated
system.cpu3.numWorkItemsStarted                     0                       # number of work items this cpu started
system.cpu3.numWorkItemsCompleted                   0                       # number of work items this cpu completed
system.cpu3.kern.inst.arm                           0                       # number of arm instructions executed
system.cpu3.kern.inst.quiesce                       0                       # number of quiesce instructions executed
system.cpu3.committedInsts                    2813625                       # Number of instructions committed
system.cpu3.committedOps                      6076001                       # Number of ops (including micro ops) committed
system.cpu3.num_int_alu_accesses              5941182                       # Number of integer alu accesses
system.cpu3.num_fp_alu_accesses                     0                       # Number of float alu accesses
system.cpu3.num_func_calls                     167224                       # number of times a function call or return occured
system.cpu3.num_conditional_control_insts       427316                       # number of instructions that are conditional controls
system.cpu3.num_int_insts                     5941182                       # number of integer instructions
system.cpu3.num_fp_insts                            0                       # number of float instructions
system.cpu3.num_int_register_reads           12079573                       # number of times the integer registers were read
system.cpu3.num_int_register_writes           4935720                       # number of times the integer registers were written
system.cpu3.num_fp_register_reads                   0                       # number of times the floating registers were read
system.cpu3.num_fp_register_writes                  0                       # number of times the floating registers were written
system.cpu3.num_cc_register_reads             3425269                       # number of times the CC registers were read
system.cpu3.num_cc_register_writes            1796086                       # number of times the CC registers were written
system.cpu3.num_mem_refs                      1445137                       # number of memory refs
system.cpu3.num_load_insts                     898497                       # Number of load instructions
system.cpu3.num_store_insts                    546640                       # Number of store instructions
system.cpu3.num_idle_cycles              7916651764.816467                       # Number of idle cycles
system.cpu3.num_busy_cycles              12241002.183532                       # Number of busy cycles
system.cpu3.not_idle_fraction                0.001544                       # Percentage of non-idle cycles
system.cpu3.idle_fraction                    0.998456                       # Percentage of idle cycles
system.cpu3.Branches                           649208                       # Number of branches fetched
system.cpu3.op_class::No_OpClass               115646      1.90%      1.90% # Class of executed instruction
system.cpu3.op_class::IntAlu                  4460796     73.42%     75.32% # Class of executed instruction
system.cpu3.op_class::IntMult                   12327      0.20%     75.52% # Class of executed instruction
system.cpu3.op_class::IntDiv                    42098      0.69%     76.22% # Class of executed instruction
system.cpu3.op_class::FloatAdd                      0      0.00%     76.22% # Class of executed instruction
system.cpu3.op_class::FloatCmp                      0      0.00%     76.22% # Class of executed instruction
system.cpu3.op_class::FloatCvt                      0      0.00%     76.22% # Class of executed instruction
system.cpu3.op_class::FloatMult                     0      0.00%     76.22% # Class of executed instruction
system.cpu3.op_class::FloatDiv                      0      0.00%     76.22% # Class of executed instruction
system.cpu3.op_class::FloatSqrt                     0      0.00%     76.22% # Class of executed instruction
system.cpu3.op_class::SimdAdd                       0      0.00%     76.22% # Class of executed instruction
system.cpu3.op_class::SimdAddAcc                    0      0.00%     76.22% # Class of executed instruction
system.cpu3.op_class::SimdAlu                       0      0.00%     76.22% # Class of executed instruction
system.cpu3.op_class::SimdCmp                       0      0.00%     76.22% # Class of executed instruction
system.cpu3.op_class::SimdCvt                       0      0.00%     76.22% # Class of executed instruction
system.cpu3.op_class::SimdMisc                      0      0.00%     76.22% # Class of executed instruction
system.cpu3.op_class::SimdMult                      0      0.00%     76.22% # Class of executed instruction
system.cpu3.op_class::SimdMultAcc                   0      0.00%     76.22% # Class of executed instruction
system.cpu3.op_class::SimdShift                     0      0.00%     76.22% # Class of executed instruction
system.cpu3.op_class::SimdShiftAcc                  0      0.00%     76.22% # Class of executed instruction
system.cpu3.op_class::SimdSqrt                      0      0.00%     76.22% # Class of executed instruction
system.cpu3.op_class::SimdFloatAdd                  0      0.00%     76.22% # Class of executed instruction
system.cpu3.op_class::SimdFloatAlu                  0      0.00%     76.22% # Class of executed instruction
system.cpu3.op_class::SimdFloatCmp                  0      0.00%     76.22% # Class of executed instruction
system.cpu3.op_class::SimdFloatCvt                  0      0.00%     76.22% # Class of executed instruction
system.cpu3.op_class::SimdFloatDiv                  0      0.00%     76.22% # Class of executed instruction
system.cpu3.op_class::SimdFloatMisc                 0      0.00%     76.22% # Class of executed instruction
system.cpu3.op_class::SimdFloatMult                 0      0.00%     76.22% # Class of executed instruction
system.cpu3.op_class::SimdFloatMultAcc              0      0.00%     76.22% # Class of executed instruction
system.cpu3.op_class::SimdFloatSqrt                 0      0.00%     76.22% # Class of executed instruction
system.cpu3.op_class::MemRead                  898497     14.79%     91.00% # Class of executed instruction
system.cpu3.op_class::MemWrite                 546640      9.00%    100.00% # Class of executed instruction
system.cpu3.op_class::IprAccess                     0      0.00%    100.00% # Class of executed instruction
system.cpu3.op_class::InstPrefetch                  0      0.00%    100.00% # Class of executed instruction
system.cpu3.op_class::total                   6076004                       # Class of executed instruction
system.iobus.trans_dist::ReadReq                  195                       # Transaction distribution
system.iobus.trans_dist::ReadResp                 195                       # Transaction distribution
system.iobus.trans_dist::WriteReq                4099                       # Transaction distribution
system.iobus.trans_dist::WriteResp               4099                       # Transaction distribution
system.iobus.trans_dist::MessageReq                17                       # Transaction distribution
system.iobus.trans_dist::MessageResp               17                       # Transaction distribution
system.iobus.pkt_count_system.pc.south_bridge.io_apic.int_master::system.ruby.l1_cntrl0.sequencer.pio-slave-port            4                       # Packet count per connected master and slave (bytes)
system.iobus.pkt_count_system.pc.south_bridge.io_apic.int_master::system.ruby.l1_cntrl1.sequencer.pio-slave-port            4                       # Packet count per connected master and slave (bytes)
system.iobus.pkt_count_system.pc.south_bridge.io_apic.int_master::system.ruby.l1_cntrl2.sequencer.pio-slave-port            4                       # Packet count per connected master and slave (bytes)
system.iobus.pkt_count_system.pc.south_bridge.io_apic.int_master::system.ruby.l1_cntrl3.sequencer.pio-slave-port            4                       # Packet count per connected master and slave (bytes)
system.iobus.pkt_count_system.pc.south_bridge.io_apic.int_master::total           16                       # Packet count per connected master and slave (bytes)
system.iobus.pkt_count_system.ruby.l1_cntrl0.sequencer.mem-master-port::system.pc.south_bridge.ide.pio           34                       # Packet count per connected master and slave (bytes)
system.iobus.pkt_count_system.ruby.l1_cntrl0.sequencer.mem-master-port::system.pc.south_bridge.io_apic.pio           14                       # Packet count per connected master and slave (bytes)
system.iobus.pkt_count_system.ruby.l1_cntrl0.sequencer.mem-master-port::system.pc.com_1.pio          174                       # Packet count per connected master and slave (bytes)
system.iobus.pkt_count_system.ruby.l1_cntrl0.sequencer.mem-master-port::system.ruby.l1_cntrl0.sequencer.pio-slave-port         2008                       # Packet count per connected master and slave (bytes)
system.iobus.pkt_count_system.ruby.l1_cntrl0.sequencer.mem-master-port::system.ruby.l1_cntrl1.sequencer.pio-slave-port            2                       # Packet count per connected master and slave (bytes)
system.iobus.pkt_count_system.ruby.l1_cntrl0.sequencer.mem-master-port::system.ruby.l1_cntrl2.sequencer.pio-slave-port            2                       # Packet count per connected master and slave (bytes)
system.iobus.pkt_count_system.ruby.l1_cntrl0.sequencer.mem-master-port::system.ruby.l1_cntrl3.sequencer.pio-slave-port            2                       # Packet count per connected master and slave (bytes)
system.iobus.pkt_count_system.ruby.l1_cntrl0.sequencer.mem-master-port::total         2236                       # Packet count per connected master and slave (bytes)
system.iobus.pkt_count_system.ruby.l1_cntrl1.sequencer.mem-master-port::system.pc.south_bridge.io_apic.pio           16                       # Packet count per connected master and slave (bytes)
system.iobus.pkt_count_system.ruby.l1_cntrl1.sequencer.mem-master-port::system.pc.com_1.pio            4                       # Packet count per connected master and slave (bytes)
system.iobus.pkt_count_system.ruby.l1_cntrl1.sequencer.mem-master-port::system.ruby.l1_cntrl1.sequencer.pio-slave-port         2000                       # Packet count per connected master and slave (bytes)
system.iobus.pkt_count_system.ruby.l1_cntrl1.sequencer.mem-master-port::system.ruby.l1_cntrl2.sequencer.pio-slave-port            2                       # Packet count per connected master and slave (bytes)
system.iobus.pkt_count_system.ruby.l1_cntrl1.sequencer.mem-master-port::total         2022                       # Packet count per connected master and slave (bytes)
system.iobus.pkt_count_system.ruby.l1_cntrl2.sequencer.mem-master-port::system.pc.south_bridge.ide.pio           46                       # Packet count per connected master and slave (bytes)
system.iobus.pkt_count_system.ruby.l1_cntrl2.sequencer.mem-master-port::system.pc.south_bridge.io_apic.pio            8                       # Packet count per connected master and slave (bytes)
system.iobus.pkt_count_system.ruby.l1_cntrl2.sequencer.mem-master-port::system.ruby.l1_cntrl1.sequencer.pio-slave-port            6                       # Packet count per connected master and slave (bytes)
system.iobus.pkt_count_system.ruby.l1_cntrl2.sequencer.mem-master-port::system.ruby.l1_cntrl2.sequencer.pio-slave-port         2014                       # Packet count per connected master and slave (bytes)
system.iobus.pkt_count_system.ruby.l1_cntrl2.sequencer.mem-master-port::system.ruby.l1_cntrl3.sequencer.pio-slave-port            2                       # Packet count per connected master and slave (bytes)
system.iobus.pkt_count_system.ruby.l1_cntrl2.sequencer.mem-master-port::total         2076                       # Packet count per connected master and slave (bytes)
system.iobus.pkt_count_system.ruby.l1_cntrl3.sequencer.mem-master-port::system.pc.south_bridge.ide.pio           12                       # Packet count per connected master and slave (bytes)
system.iobus.pkt_count_system.ruby.l1_cntrl3.sequencer.mem-master-port::system.pc.south_bridge.io_apic.pio            6                       # Packet count per connected master and slave (bytes)
system.iobus.pkt_count_system.ruby.l1_cntrl3.sequencer.mem-master-port::system.pc.com_1.pio          254                       # Packet count per connected master and slave (bytes)
system.iobus.pkt_count_system.ruby.l1_cntrl3.sequencer.mem-master-port::system.ruby.l1_cntrl0.sequencer.pio-slave-port            2                       # Packet count per connected master and slave (bytes)
system.iobus.pkt_count_system.ruby.l1_cntrl3.sequencer.mem-master-port::system.ruby.l1_cntrl3.sequencer.pio-slave-port         1998                       # Packet count per connected master and slave (bytes)
system.iobus.pkt_count_system.ruby.l1_cntrl3.sequencer.mem-master-port::total         2272                       # Packet count per connected master and slave (bytes)
system.iobus.pkt_count::total                    8622                       # Packet count per connected master and slave (bytes)
system.iobus.pkt_size_system.pc.south_bridge.io_apic.int_master::system.ruby.l1_cntrl0.sequencer.pio-slave-port            8                       # Cumulative packet size per connected master and slave (bytes)
system.iobus.pkt_size_system.pc.south_bridge.io_apic.int_master::system.ruby.l1_cntrl1.sequencer.pio-slave-port            8                       # Cumulative packet size per connected master and slave (bytes)
system.iobus.pkt_size_system.pc.south_bridge.io_apic.int_master::system.ruby.l1_cntrl2.sequencer.pio-slave-port            8                       # Cumulative packet size per connected master and slave (bytes)
system.iobus.pkt_size_system.pc.south_bridge.io_apic.int_master::system.ruby.l1_cntrl3.sequencer.pio-slave-port            8                       # Cumulative packet size per connected master and slave (bytes)
system.iobus.pkt_size_system.pc.south_bridge.io_apic.int_master::total           32                       # Cumulative packet size per connected master and slave (bytes)
system.iobus.pkt_size_system.ruby.l1_cntrl0.sequencer.mem-master-port::system.pc.south_bridge.ide.pio           20                       # Cumulative packet size per connected master and slave (bytes)
system.iobus.pkt_size_system.ruby.l1_cntrl0.sequencer.mem-master-port::system.pc.south_bridge.io_apic.pio           28                       # Cumulative packet size per connected master and slave (bytes)
system.iobus.pkt_size_system.ruby.l1_cntrl0.sequencer.mem-master-port::system.pc.com_1.pio           87                       # Cumulative packet size per connected master and slave (bytes)
system.iobus.pkt_size_system.ruby.l1_cntrl0.sequencer.mem-master-port::system.ruby.l1_cntrl0.sequencer.pio-slave-port         4016                       # Cumulative packet size per connected master and slave (bytes)
system.iobus.pkt_size_system.ruby.l1_cntrl0.sequencer.mem-master-port::system.ruby.l1_cntrl1.sequencer.pio-slave-port            4                       # Cumulative packet size per connected master and slave (bytes)
system.iobus.pkt_size_system.ruby.l1_cntrl0.sequencer.mem-master-port::system.ruby.l1_cntrl2.sequencer.pio-slave-port            4                       # Cumulative packet size per connected master and slave (bytes)
system.iobus.pkt_size_system.ruby.l1_cntrl0.sequencer.mem-master-port::system.ruby.l1_cntrl3.sequencer.pio-slave-port            4                       # Cumulative packet size per connected master and slave (bytes)
system.iobus.pkt_size_system.ruby.l1_cntrl0.sequencer.mem-master-port::total         4163                       # Cumulative packet size per connected master and slave (bytes)
system.iobus.pkt_size_system.ruby.l1_cntrl1.sequencer.mem-master-port::system.pc.south_bridge.io_apic.pio           32                       # Cumulative packet size per connected master and slave (bytes)
system.iobus.pkt_size_system.ruby.l1_cntrl1.sequencer.mem-master-port::system.pc.com_1.pio            2                       # Cumulative packet size per connected master and slave (bytes)
system.iobus.pkt_size_system.ruby.l1_cntrl1.sequencer.mem-master-port::system.ruby.l1_cntrl1.sequencer.pio-slave-port         4000                       # Cumulative packet size per connected master and slave (bytes)
system.iobus.pkt_size_system.ruby.l1_cntrl1.sequencer.mem-master-port::system.ruby.l1_cntrl2.sequencer.pio-slave-port            4                       # Cumulative packet size per connected master and slave (bytes)
system.iobus.pkt_size_system.ruby.l1_cntrl1.sequencer.mem-master-port::total         4038                       # Cumulative packet size per connected master and slave (bytes)
system.iobus.pkt_size_system.ruby.l1_cntrl2.sequencer.mem-master-port::system.pc.south_bridge.ide.pio           26                       # Cumulative packet size per connected master and slave (bytes)
system.iobus.pkt_size_system.ruby.l1_cntrl2.sequencer.mem-master-port::system.pc.south_bridge.io_apic.pio           16                       # Cumulative packet size per connected master and slave (bytes)
system.iobus.pkt_size_system.ruby.l1_cntrl2.sequencer.mem-master-port::system.ruby.l1_cntrl1.sequencer.pio-slave-port           12                       # Cumulative packet size per connected master and slave (bytes)
system.iobus.pkt_size_system.ruby.l1_cntrl2.sequencer.mem-master-port::system.ruby.l1_cntrl2.sequencer.pio-slave-port         4028                       # Cumulative packet size per connected master and slave (bytes)
system.iobus.pkt_size_system.ruby.l1_cntrl2.sequencer.mem-master-port::system.ruby.l1_cntrl3.sequencer.pio-slave-port            4                       # Cumulative packet size per connected master and slave (bytes)
system.iobus.pkt_size_system.ruby.l1_cntrl2.sequencer.mem-master-port::total         4086                       # Cumulative packet size per connected master and slave (bytes)
system.iobus.pkt_size_system.ruby.l1_cntrl3.sequencer.mem-master-port::system.pc.south_bridge.ide.pio            6                       # Cumulative packet size per connected master and slave (bytes)
system.iobus.pkt_size_system.ruby.l1_cntrl3.sequencer.mem-master-port::system.pc.south_bridge.io_apic.pio           12                       # Cumulative packet size per connected master and slave (bytes)
system.iobus.pkt_size_system.ruby.l1_cntrl3.sequencer.mem-master-port::system.pc.com_1.pio          127                       # Cumulative packet size per connected master and slave (bytes)
system.iobus.pkt_size_system.ruby.l1_cntrl3.sequencer.mem-master-port::system.ruby.l1_cntrl0.sequencer.pio-slave-port            4                       # Cumulative packet size per connected master and slave (bytes)
system.iobus.pkt_size_system.ruby.l1_cntrl3.sequencer.mem-master-port::system.ruby.l1_cntrl3.sequencer.pio-slave-port         3996                       # Cumulative packet size per connected master and slave (bytes)
system.iobus.pkt_size_system.ruby.l1_cntrl3.sequencer.mem-master-port::total         4145                       # Cumulative packet size per connected master and slave (bytes)
system.iobus.pkt_size::total                    16464                       # Cumulative packet size per connected master and slave (bytes)
system.iobus.reqLayer2.occupancy                85500                       # Layer occupancy (ticks)
system.iobus.reqLayer2.utilization                0.0                       # Layer utilization (%)
system.iobus.reqLayer8.occupancy                38995                       # Layer occupancy (ticks)
system.iobus.reqLayer8.utilization                0.0                       # Layer utilization (%)
system.iobus.reqLayer12.occupancy              275000                       # Layer occupancy (ticks)
system.iobus.reqLayer12.utilization               0.0                       # Layer utilization (%)
system.iobus.reqLayer17.occupancy             2491997                       # Layer occupancy (ticks)
system.iobus.reqLayer17.utilization               0.0                       # Layer utilization (%)
system.iobus.reqLayer18.occupancy             2504000                       # Layer occupancy (ticks)
system.iobus.reqLayer18.utilization               0.0                       # Layer utilization (%)
system.iobus.reqLayer19.occupancy             2762007                       # Layer occupancy (ticks)
system.iobus.reqLayer19.utilization               0.0                       # Layer utilization (%)
system.iobus.reqLayer20.occupancy             2499499                       # Layer occupancy (ticks)
system.iobus.reqLayer20.utilization               0.0                       # Layer utilization (%)
system.iobus.respLayer0.occupancy               10498                       # Layer occupancy (ticks)
system.iobus.respLayer0.utilization               0.0                       # Layer utilization (%)
system.iobus.respLayer2.occupancy             1695000                       # Layer occupancy (ticks)
system.iobus.respLayer2.utilization               0.0                       # Layer utilization (%)
system.iobus.respLayer4.occupancy             1516000                       # Layer occupancy (ticks)
system.iobus.respLayer4.utilization               0.0                       # Layer utilization (%)
system.iobus.respLayer6.occupancy             1556000                       # Layer occupancy (ticks)
system.iobus.respLayer6.utilization               0.0                       # Layer utilization (%)
system.iobus.respLayer8.occupancy             1736500                       # Layer occupancy (ticks)
system.iobus.respLayer8.utilization               0.0                       # Layer utilization (%)
system.pc.south_bridge.ide.disks.dma_read_full_pages            1                       # Number of full page size DMA reads (not PRD).
system.pc.south_bridge.ide.disks.dma_read_bytes         4096                       # Number of bytes transfered via DMA reads (not PRD).
system.pc.south_bridge.ide.disks.dma_read_txs            1                       # Number of DMA read transactions (not PRD).
system.pc.south_bridge.ide.disks.dma_write_full_pages           24                       # Number of full page size DMA writes.
system.pc.south_bridge.ide.disks.dma_write_bytes        98304                       # Number of bytes transfered via DMA writes.
system.pc.south_bridge.ide.disks.dma_write_txs           24                       # Number of DMA write transactions.
system.ruby.clk_domain.clock                      500                       # Clock period in ticks
system.ruby.outstanding_req_hist_seqr::bucket_size            1                      
system.ruby.outstanding_req_hist_seqr::max_bucket            9                      
system.ruby.outstanding_req_hist_seqr::samples   3806227102                      
system.ruby.outstanding_req_hist_seqr::mean     1.000000                      
system.ruby.outstanding_req_hist_seqr::gmean     1.000000                      
system.ruby.outstanding_req_hist_seqr::stdev     0.000223                      
system.ruby.outstanding_req_hist_seqr    |           0      0.00%      0.00% |  3806226913    100.00%    100.00% |         189      0.00%    100.00% |           0      0.00%    100.00% |           0      0.00%    100.00% |           0      0.00%    100.00% |           0      0.00%    100.00% |           0      0.00%    100.00% |           0      0.00%    100.00% |           0      0.00%    100.00%
system.ruby.outstanding_req_hist_seqr::total   3806227102                      
system.ruby.latency_hist_seqr::bucket_size          128                      
system.ruby.latency_hist_seqr::max_bucket         1279                      
system.ruby.latency_hist_seqr::samples     3806227102                      
system.ruby.latency_hist_seqr::mean          1.093599                      
system.ruby.latency_hist_seqr::gmean         1.007262                      
system.ruby.latency_hist_seqr::stdev         3.318707                      
system.ruby.latency_hist_seqr            |  3805460803     99.98%     99.98% |      723064      0.02%    100.00% |       16741      0.00%    100.00% |        7103      0.00%    100.00% |       13672      0.00%    100.00% |        5454      0.00%    100.00% |         172      0.00%    100.00% |          85      0.00%    100.00% |           7      0.00%    100.00% |           1      0.00%    100.00%
system.ruby.latency_hist_seqr::total       3806227102                      
system.ruby.hit_latency_hist_seqr::bucket_size            1                      
system.ruby.hit_latency_hist_seqr::max_bucket            9                      
system.ruby.hit_latency_hist_seqr::samples   3797871534                      
system.ruby.hit_latency_hist_seqr::mean             1                      
system.ruby.hit_latency_hist_seqr::gmean            1                      
system.ruby.hit_latency_hist_seqr        |           0      0.00%      0.00% |  3797871534    100.00%    100.00% |           0      0.00%    100.00% |           0      0.00%    100.00% |           0      0.00%    100.00% |           0      0.00%    100.00% |           0      0.00%    100.00% |           0      0.00%    100.00% |           0      0.00%    100.00% |           0      0.00%    100.00%
system.ruby.hit_latency_hist_seqr::total   3797871534                      
system.ruby.miss_latency_hist_seqr::bucket_size          128                      
system.ruby.miss_latency_hist_seqr::max_bucket         1279                      
[...]
system.ruby.L1Cache_Controller.O.Fwd_GETX::total        19052                      
system.ruby.L1Cache_Controller.O.Fwd_GETS |        2117     10.29%     10.29% |       10278     49.95%     60.24% |         221      1.07%     61.31% |        7961     38.69%    100.00%
system.ruby.L1Cache_Controller.O.Fwd_GETS::total        20577                      
system.ruby.L1Cache_Controller.M.Load    |      134351      0.69%      0.69% |       88786      0.46%      1.15% |    19086012     98.64%     99.79% |       39792      0.21%    100.00%
system.ruby.L1Cache_Controller.M.Load::total     19348941                      
system.ruby.L1Cache_Controller.M.Store   |       14505      6.18%      6.18% |        3519      1.50%      7.69% |      214661     91.53%     99.21% |        1842      0.79%    100.00%
system.ruby.L1Cache_Controller.M.Store::total       234527                      
system.ruby.L1Cache_Controller.M.L1_Replacement |        9990      0.90%      0.90% |        4212      0.38%      1.27% |     1097072     98.46%     99.73% |        2992      0.27%    100.00%
system.ruby.L1Cache_Controller.M.L1_Replacement::total      1114266                      
system.ruby.L1Cache_Controller.M.Fwd_GETX |         146     18.36%     18.36% |         379     47.67%     66.04% |          77      9.69%     75.72% |         193     24.28%    100.00%
system.ruby.L1Cache_Controller.M.Fwd_GETX::total          795                      
system.ruby.L1Cache_Controller.M.Fwd_GETS |        3963     19.92%     19.92% |        9607     48.29%     68.21% |         252      1.27%     69.48% |        6071     30.52%    100.00%
system.ruby.L1Cache_Controller.M.Fwd_GETS::total        19893                      
system.ruby.L1Cache_Controller.M_W.Load  |       22619      2.58%      2.58% |       12338      1.41%      3.99% |      833870     95.09%     99.08% |        8077      0.92%    100.00%
system.ruby.L1Cache_Controller.M_W.Load::total       876904                      
system.ruby.L1Cache_Controller.M_W.Store |        2167      1.21%      1.21% |        1636      0.91%      2.12% |      174815     97.51%     99.63% |         670      0.37%    100.00%
system.ruby.L1Cache_Controller.M_W.Store::total       179288                      
system.ruby.L1Cache_Controller.M_W.L1_Replacement |          83     38.60%     38.60% |           3      1.40%     40.00% |         125     58.14%     98.14% |           4      1.86%    100.00%
system.ruby.L1Cache_Controller.M_W.L1_Replacement::total          215                      
system.ruby.L1Cache_Controller.M_W.Fwd_GETX |           3      5.88%      5.88% |           0      0.00%      5.88% |          15     29.41%     35.29% |          33     64.71%    100.00%
system.ruby.L1Cache_Controller.M_W.Fwd_GETX::total           51                      
system.ruby.L1Cache_Controller.M_W.Fwd_GETS |           7      2.33%      2.33% |         102     33.89%     36.21% |         105     34.88%     71.10% |          87     28.90%    100.00%
system.ruby.L1Cache_Controller.M_W.Fwd_GETS::total          301                      
system.ruby.L1Cache_Controller.M_W.Use_Timeout |       28532      2.08%      2.08% |       17727      1.29%      3.38% |     1312118     95.81%     99.19% |       11089      0.81%    100.00%
system.ruby.L1Cache_Controller.M_W.Use_Timeout::total      1369466                      
system.ruby.L1Cache_Controller.MM.Load   |     1487261      0.79%      0.79% |      915577      0.49%      1.28% |   184476350     98.36%     99.65% |      665109      0.35%    100.00%
system.ruby.L1Cache_Controller.MM.Load::total    187544297                      
system.ruby.L1Cache_Controller.MM.Store  |     1501894      2.72%      2.72% |      964836      1.75%      4.47% |    51976672     94.23%     98.70% |      717611      1.30%    100.00%
system.ruby.L1Cache_Controller.MM.Store::total     55161013                      
system.ruby.L1Cache_Controller.MM.L1_Replacement |       45022      3.03%      3.03% |       20158      1.36%      4.39% |     1407416     94.79%     99.18% |       12213      0.82%    100.00%
system.ruby.L1Cache_Controller.MM.L1_Replacement::total      1484809                      
system.ruby.L1Cache_Controller.MM.Fwd_GETX |        1121     33.96%     33.96% |         834     25.27%     59.22% |         679     20.57%     79.79% |         667     20.21%    100.00%
system.ruby.L1Cache_Controller.MM.Fwd_GETX::total         3301                      
system.ruby.L1Cache_Controller.MM.Fwd_GETS |        8118     52.10%     52.10% |        3080     19.77%     71.86% |        1425      9.14%     81.00% |        2960     19.00%    100.00%
system.ruby.L1Cache_Controller.MM.Fwd_GETS::total        15583                      
system.ruby.L1Cache_Controller.MM.Fwd_DMA |           3     11.11%     11.11% |           0      0.00%     11.11% |          24     88.89%    100.00% |           0      0.00%    100.00%
system.ruby.L1Cache_Controller.MM.Fwd_DMA::total           27                      
system.ruby.L1Cache_Controller.MM_W.Load |        5284      2.61%      2.61% |        1973      0.98%      3.59% |      193706     95.74%     99.32% |        1368      0.68%    100.00%
system.ruby.L1Cache_Controller.MM_W.Load::total       202331                      
system.ruby.L1Cache_Controller.MM_W.Store |      122064      5.67%      5.67% |       76345      3.55%      9.22% |     1915144     88.97%     98.19% |       38914      1.81%    100.00%
system.ruby.L1Cache_Controller.MM_W.Store::total      2152467                      
system.ruby.L1Cache_Controller.MM_W.L1_Replacement |           2      2.90%      2.90% |           8     11.59%     14.49% |          59     85.51%    100.00% |           0      0.00%    100.00%
system.ruby.L1Cache_Controller.MM_W.L1_Replacement::total           69                      
system.ruby.L1Cache_Controller.MM_W.Fwd_GETX |           4     10.53%     10.53% |          17     44.74%     55.26% |           6     15.79%     71.05% |          11     28.95%    100.00%
system.ruby.L1Cache_Controller.MM_W.Fwd_GETX::total           38                      
system.ruby.L1Cache_Controller.MM_W.Fwd_GETS |         100      5.39%      5.39% |         593     31.93%     37.32% |         579     31.18%     68.50% |         585     31.50%    100.00%
system.ruby.L1Cache_Controller.MM_W.Fwd_GETS::total         1857                      
system.ruby.L1Cache_Controller.MM_W.Use_Timeout |       39781      3.13%      3.13% |       20582      1.62%      4.76% |     1194840     94.14%     98.90% |       13988      1.10%    100.00%
system.ruby.L1Cache_Controller.MM_W.Use_Timeout::total      1269191                      
system.ruby.L1Cache_Controller.IM.Ack    |        8656     45.16%     45.16% |        3699     19.30%     64.45% |        2456     12.81%     77.27% |        4358     22.73%    100.00%
system.ruby.L1Cache_Controller.IM.Ack::total        19169                      
system.ruby.L1Cache_Controller.IM.Exclusive_Data |       27302      4.21%      4.21% |       16320      2.52%      6.72% |      595318     91.78%     98.50% |        9724      1.50%    100.00%
system.ruby.L1Cache_Controller.IM.Exclusive_Data::total       648664                      
system.ruby.L1Cache_Controller.SM.Ack    |        8602     54.58%     54.58% |        1108      7.03%     61.61% |        3025     19.19%     80.80% |        3026     19.20%    100.00%
system.ruby.L1Cache_Controller.SM.Ack::total        15761                      
system.ruby.L1Cache_Controller.SM.Exclusive_Data |       10294      2.33%      2.33% |        2533      0.57%      2.91% |      424667     96.28%     99.19% |        3563      0.81%    100.00%
system.ruby.L1Cache_Controller.SM.Exclusive_Data::total       441057                      
system.ruby.L1Cache_Controller.OM.Own_GETX |          18      9.89%      9.89% |          93     51.10%     60.99% |          40     21.98%     82.97% |          31     17.03%    100.00%
system.ruby.L1Cache_Controller.OM.Own_GETX::total          182                      
system.ruby.L1Cache_Controller.OM.Ack    |         416     25.40%     25.40% |         408     24.91%     50.31% |         656     40.05%     90.35% |         158      9.65%    100.00%
system.ruby.L1Cache_Controller.OM.Ack::total         1638                      
system.ruby.L1Cache_Controller.OM.All_acks |       37614      3.45%      3.45% |       18946      1.74%      5.19% |     1020025     93.59%     98.78% |       13318      1.22%    100.00%
system.ruby.L1Cache_Controller.OM.All_acks::total      1089903                      
system.ruby.L1Cache_Controller.IS.Data   |      133728      2.26%      2.26% |       70035      1.18%      3.44% |     5647813     95.45%     98.90% |       65252      1.10%    100.00%
system.ruby.L1Cache_Controller.IS.Data::total      5916828                      
system.ruby.L1Cache_Controller.IS.Exclusive_Data |       30698      1.98%      1.98% |       19363      1.25%      3.23% |     1486933     96.01%     99.24% |       11759      0.76%    100.00%
system.ruby.L1Cache_Controller.IS.Exclusive_Data::total      1548753                      
system.ruby.L1Cache_Controller.SI.Load   |          12      0.26%      0.26% |           2      0.04%      0.30% |        4577     99.59%     99.89% |           5      0.11%    100.00%
system.ruby.L1Cache_Controller.SI.Load::total         4596                      
system.ruby.L1Cache_Controller.SI.Ifetch |           4     50.00%     50.00% |           1     12.50%     62.50% |           2     25.00%     87.50% |           1     12.50%    100.00%
system.ruby.L1Cache_Controller.SI.Ifetch::total            8                      
system.ruby.L1Cache_Controller.SI.Inv    |           0      0.00%      0.00% |           1     50.00%     50.00% |           1     50.00%    100.00% |           0      0.00%    100.00%
system.ruby.L1Cache_Controller.SI.Inv::total            2                      
system.ruby.L1Cache_Controller.SI.Writeback_Ack |      103192      2.20%      2.20% |       59017      1.26%      3.45% |     4488348     95.49%     98.94% |       49858      1.06%    100.00%
system.ruby.L1Cache_Controller.SI.Writeback_Ack::total      4700415                      
system.ruby.L1Cache_Controller.SI.Writeback_Ack_Data |       17369      2.28%      2.28% |        5263      0.69%      2.97% |      733603     96.29%     99.26% |        5658      0.74%    100.00%
system.ruby.L1Cache_Controller.SI.Writeback_Ack_Data::total       761893                      
system.ruby.L1Cache_Controller.OI.Writeback_Ack_Data |         138     20.32%     20.32% |         295     43.45%     63.77% |          90     13.25%     77.03% |         156     22.97%    100.00%
system.ruby.L1Cache_Controller.OI.Writeback_Ack_Data::total          679                      
system.ruby.L1Cache_Controller.MI.Load   |           9      7.32%      7.32% |           5      4.07%     11.38% |          93     75.61%     86.99% |          16     13.01%    100.00%
system.ruby.L1Cache_Controller.MI.Load::total          123                      
system.ruby.L1Cache_Controller.MI.Store  |          14     73.68%     73.68% |           5     26.32%    100.00% |           0      0.00%    100.00% |           0      0.00%    100.00%
system.ruby.L1Cache_Controller.MI.Store::total           19                      
system.ruby.L1Cache_Controller.MI.Writeback_Ack_Data |       55012      2.12%      2.12% |       24370      0.94%      3.05% |     2504488     96.36%     99.41% |       15205      0.59%    100.00%
system.ruby.L1Cache_Controller.MI.Writeback_Ack_Data::total      2599075                      
system.ruby.L1Cache_Controller.II.Writeback_Nack |           0      0.00%      0.00% |           1     50.00%     50.00% |           1     50.00%    100.00% |           0      0.00%    100.00%
system.ruby.L1Cache_Controller.II.Writeback_Nack::total            2                      
system.ruby.L2Cache_Controller.L1_GETS        7466033      0.00%      0.00%
system.ruby.L2Cache_Controller.L1_GETX        1089911      0.00%      0.00%
system.ruby.L2Cache_Controller.L1_PUTO            679      0.00%      0.00%
system.ruby.L2Cache_Controller.L1_PUTX        2599075      0.00%      0.00%
system.ruby.L2Cache_Controller.L1_PUTS_only      5256973      0.00%      0.00%
system.ruby.L2Cache_Controller.L1_PUTS         205356      0.00%      0.00%
system.ruby.L2Cache_Controller.Fwd_GETX            30      0.00%      0.00%
system.ruby.L2Cache_Controller.Fwd_DMA             28      0.00%      0.00%
system.ruby.L2Cache_Controller.All_Acks        826050      0.00%      0.00%
system.ruby.L2Cache_Controller.Data           1917451      0.00%      0.00%
system.ruby.L2Cache_Controller.L1_WBCLEANDATA       761893      0.00%      0.00%
system.ruby.L2Cache_Controller.L1_WBDIRTYDATA      2599754      0.00%      0.00%
system.ruby.L2Cache_Controller.Writeback_Ack       812609      0.00%      0.00%
system.ruby.L2Cache_Controller.Unblock       10617243      0.00%      0.00%
system.ruby.L2Cache_Controller.Exclusive_Unblock      2638657      0.00%      0.00%
system.ruby.L2Cache_Controller.DmaAck              27      0.00%      0.00%
system.ruby.L2Cache_Controller.L2_Replacement      1456016      0.00%      0.00%
system.ruby.L2Cache_Controller.NP.L1_GETS      1091401      0.00%      0.00%
system.ruby.L2Cache_Controller.NP.L1_GETX       375795      0.00%      0.00%
system.ruby.L2Cache_Controller.ILS.L1_GETS         4453      0.00%      0.00%
system.ruby.L2Cache_Controller.ILS.L1_GETX       336338      0.00%      0.00%
system.ruby.L2Cache_Controller.ILS.L1_PUTS_only       755665      0.00%      0.00%
system.ruby.L2Cache_Controller.ILS.L1_PUTS         6228      0.00%      0.00%
system.ruby.L2Cache_Controller.ILX.L1_GETS        35476      0.00%      0.00%
system.ruby.L2Cache_Controller.ILX.L1_GETX         4096      0.00%      0.00%
system.ruby.L2Cache_Controller.ILX.L1_PUTX      2599075      0.00%      0.00%
system.ruby.L2Cache_Controller.ILX.L1_PUTS            2      0.00%      0.00%
system.ruby.L2Cache_Controller.ILX.Fwd_DMA           27      0.00%      0.00%
system.ruby.L2Cache_Controller.ILOX.L1_GETS        10534      0.00%      0.00%
system.ruby.L2Cache_Controller.ILOX.L1_GETX         2042      0.00%      0.00%
system.ruby.L2Cache_Controller.ILOX.L1_PUTO          298      0.00%      0.00%
system.ruby.L2Cache_Controller.ILOSX.L1_GETS        10043      0.00%      0.00%
system.ruby.L2Cache_Controller.ILOSX.L1_GETX        17192      0.00%      0.00%
system.ruby.L2Cache_Controller.ILOSX.L1_PUTO          381      0.00%      0.00%
system.ruby.L2Cache_Controller.ILOSX.L1_PUTS_only        12861      0.00%      0.00%
system.ruby.L2Cache_Controller.ILOSX.L1_PUTS         4335      0.00%      0.00%
system.ruby.L2Cache_Controller.S.L1_GETS      4583605      0.00%      0.00%
system.ruby.L2Cache_Controller.S.L1_GETX        19494      0.00%      0.00%
system.ruby.L2Cache_Controller.S.L2_Replacement       636630      0.00%      0.00%
system.ruby.L2Cache_Controller.OLSX.L1_GETS         7035      0.00%      0.00%
system.ruby.L2Cache_Controller.OLSX.L1_GETX          217      0.00%      0.00%
system.ruby.L2Cache_Controller.OLSX.L1_PUTS_only          128      0.00%      0.00%
system.ruby.L2Cache_Controller.OLSX.L1_PUTS         6920      0.00%      0.00%
system.ruby.L2Cache_Controller.OLSX.L2_Replacement           39      0.00%      0.00%
system.ruby.L2Cache_Controller.SLS.L1_GETS       189864      0.00%      0.00%
system.ruby.L2Cache_Controller.SLS.L1_GETX        94423      0.00%      0.00%
system.ruby.L2Cache_Controller.SLS.L1_PUTS_only      4488310      0.00%      0.00%
system.ruby.L2Cache_Controller.SLS.L1_PUTS       187860      0.00%      0.00%
system.ruby.L2Cache_Controller.SLS.L2_Replacement         6777      0.00%      0.00%
system.ruby.L2Cache_Controller.M.L1_GETS      1533170      0.00%      0.00%
system.ruby.L2Cache_Controller.M.L1_GETX       240306      0.00%      0.00%
system.ruby.L2Cache_Controller.M.Fwd_GETX           30      0.00%      0.00%
system.ruby.L2Cache_Controller.M.Fwd_DMA            1      0.00%      0.00%
system.ruby.L2Cache_Controller.M.L2_Replacement       812570      0.00%      0.00%
system.ruby.L2Cache_Controller.ILOXW.L1_WBDIRTYDATA          298      0.00%      0.00%
system.ruby.L2Cache_Controller.ILOXW.Unblock        12861      0.00%      0.00%
system.ruby.L2Cache_Controller.ILOSXW.L1_WBDIRTYDATA          381      0.00%      0.00%
system.ruby.L2Cache_Controller.ILOSXW.Unblock         4335      0.00%      0.00%
system.ruby.L2Cache_Controller.SLSW.L1_GETS            4      0.00%      0.00%
system.ruby.L2Cache_Controller.SLSW.L1_PUTS            4      0.00%      0.00%
system.ruby.L2Cache_Controller.SLSW.Unblock       187860      0.00%      0.00%
system.ruby.L2Cache_Controller.ILSW.L1_WBCLEANDATA         6228      0.00%      0.00%
system.ruby.L2Cache_Controller.IW.L1_WBCLEANDATA       755665      0.00%      0.00%
system.ruby.L2Cache_Controller.SW.L1_GETS            7      0.00%      0.00%
system.ruby.L2Cache_Controller.SW.Unblock      4488311      0.00%      0.00%
system.ruby.L2Cache_Controller.OXW.Unblock          128      0.00%      0.00%
system.ruby.L2Cache_Controller.OLSXW.Unblock         6920      0.00%      0.00%
system.ruby.L2Cache_Controller.ILXW.L1_GETS            1      0.00%      0.00%
system.ruby.L2Cache_Controller.ILXW.L1_WBDIRTYDATA      2599075      0.00%      0.00%
system.ruby.L2Cache_Controller.IFLS.L1_GETS            4      0.00%      0.00%
system.ruby.L2Cache_Controller.IFLS.Unblock         4453      0.00%      0.00%
system.ruby.L2Cache_Controller.IFLOX.Unblock        10534      0.00%      0.00%
system.ruby.L2Cache_Controller.IFLOX.Exclusive_Unblock          217      0.00%      0.00%
system.ruby.L2Cache_Controller.IFLOXX.L1_GETS          139      0.00%      0.00%
system.ruby.L2Cache_Controller.IFLOXX.L1_GETX            8      0.00%      0.00%
system.ruby.L2Cache_Controller.IFLOXX.Unblock        19893      0.00%      0.00%
system.ruby.L2Cache_Controller.IFLOXX.Exclusive_Unblock        21721      0.00%      0.00%
system.ruby.L2Cache_Controller.IFLOSX.Unblock        10043      0.00%      0.00%
system.ruby.L2Cache_Controller.IFLXO.L1_GETS           97      0.00%      0.00%
system.ruby.L2Cache_Controller.IFLXO.Exclusive_Unblock        17192      0.00%      0.00%
system.ruby.L2Cache_Controller.IGS.L1_GETS          198      0.00%      0.00%
system.ruby.L2Cache_Controller.IGS.Data       1091401      0.00%      0.00%
system.ruby.L2Cache_Controller.IGS.Unblock      1091401      0.00%      0.00%
system.ruby.L2Cache_Controller.IGM.Data        395289      0.00%      0.00%
system.ruby.L2Cache_Controller.IGMLS.L1_PUTS_only            7      0.00%      0.00%
system.ruby.L2Cache_Controller.IGMLS.Data       430761      0.00%      0.00%
system.ruby.L2Cache_Controller.IGMO.L1_PUTS_only            2      0.00%      0.00%
system.ruby.L2Cache_Controller.IGMO.L1_PUTS            3      0.00%      0.00%
system.ruby.L2Cache_Controller.IGMO.All_Acks       826050      0.00%      0.00%
system.ruby.L2Cache_Controller.IGMO.Exclusive_Unblock       826050      0.00%      0.00%
system.ruby.L2Cache_Controller.MM.Exclusive_Unblock       240306      0.00%      0.00%
system.ruby.L2Cache_Controller.SS.Unblock      4583605      0.00%      0.00%
system.ruby.L2Cache_Controller.OO.Exclusive_Unblock      1533171      0.00%      0.00%
system.ruby.L2Cache_Controller.OLSXS.Unblock         7035      0.00%      0.00%
system.ruby.L2Cache_Controller.SLSS.L1_GETS            2      0.00%      0.00%
system.ruby.L2Cache_Controller.SLSS.L1_PUTS            4      0.00%      0.00%
system.ruby.L2Cache_Controller.SLSS.Unblock       189864      0.00%      0.00%
system.ruby.L2Cache_Controller.MI.Writeback_Ack       812570      0.00%      0.00%
system.ruby.L2Cache_Controller.OLSI.Writeback_Ack           39      0.00%      0.00%
system.ruby.L2Cache_Controller.ILXD.DmaAck           27      0.00%      0.00%

---------- End Simulation Statistics   ----------
