
---------- Begin Simulation Statistics ----------
sim_seconds                                  1.188410                       # Number of seconds simulated
sim_ticks                                1188410339500                       # Number of ticks simulated
final_tick                               54827531948501                       # Number of ticks from beginning of simulation (restored from checkpoints and never reset)
sim_freq                                 1000000000000                       # Frequency of simulated ticks
host_inst_rate                                 113227                       # Simulator instruction rate (inst/s)
host_op_rate                                   187728                       # Simulator op (including micro ops) rate (op/s)
host_tick_rate                              479054082                       # Simulator tick rate (ticks/s)
host_mem_usage                                1957596                       # Number of bytes of host memory used
host_seconds                                  2480.74                       # Real time elapsed on the host
sim_insts                                   280887820                       # Number of instructions simulated
sim_ops                                     465706250                       # Number of ops (including micro ops) simulated
system.voltage_domain.voltage                       1                       # Voltage in Volts
system.clk_domain.clock                          1000                       # Clock period in ticks
system.mem_ctrls.bytes_read::ruby.dir_cntrl0   1065221632                       # Number of bytes read from this memory
system.mem_ctrls.bytes_read::total         1065221632                       # Number of bytes read from this memory
system.mem_ctrls.bytes_written::ruby.dir_cntrl0   1061674624                       # Number of bytes written to this memory
system.mem_ctrls.bytes_written::total      1061674624                       # Number of bytes written to this memory
system.mem_ctrls.num_reads::ruby.dir_cntrl0      8322044                       # Number of read requests responded to by this memory
system.mem_ctrls.num_reads::total             8322044                       # Number of read requests responded to by this memory
system.mem_ctrls.num_writes::ruby.dir_cntrl0      8294333                       # Number of write requests responded to by this memory
system.mem_ctrls.num_writes::total            8294333                       # Number of write requests responded to by this memory
system.mem_ctrls.bw_read::ruby.dir_cntrl0    896341606                       # Total read bandwidth from this memory (bytes/s)
system.mem_ctrls.bw_read::total             896341606                       # Total read bandwidth from this memory (bytes/s)
system.mem_ctrls.bw_write::ruby.dir_cntrl0    893356940                       # Write bandwidth from this memory (bytes/s)
system.mem_ctrls.bw_write::total            893356940                       # Write bandwidth from this memory (bytes/s)
system.mem_ctrls.bw_total::ruby.dir_cntrl0   1789698545                       # Total bandwidth to/from this memory (bytes/s)
system.mem_ctrls.bw_total::total           1789698545                       # Total bandwidth to/from this memory (bytes/s)
system.mem_ctrls.readReqs                     8322044                       # Number of read requests accepted
system.mem_ctrls.writeReqs                    8294333                       # Number of write requests accepted
system.mem_ctrls.readBursts                  16644088                       # Number of DRAM read bursts, including those serviced by the write queue
system.mem_ctrls.writeBursts                 16588666                       # Number of DRAM write bursts, including those merged in the write queue
system.mem_ctrls.bytesReadDRAM              988089600                       # Total number of bytes read from DRAM
system.mem_ctrls.bytesReadWrQ                77132032                       # Total number of bytes read from write queue
system.mem_ctrls.bytesWritten              1050268992                       # Total number of bytes written to DRAM
system.mem_ctrls.bytesReadSys              1065221632                       # Total read bytes from the system interface side
system.mem_ctrls.bytesWrittenSys           1061674624                       # Total written bytes from the system interface side
system.mem_ctrls.servicedByWrQ                1205188                       # Number of DRAM read bursts serviced by the write queue
system.mem_ctrls.mergedWrBursts                178215                       # Number of DRAM write bursts merged with an existing one
system.mem_ctrls.neitherReadNorWriteReqs            0                       # Number of requests that are neither read nor write
system.mem_ctrls.perBankRdBursts::0            924489                       # Per bank write bursts
system.mem_ctrls.perBankRdBursts::1           1687064                       # Per bank write bursts
system.mem_ctrls.perBankRdBursts::2            802823                       # Per bank write bursts
system.mem_ctrls.perBankRdBursts::3            970214                       # Per bank write bursts
system.mem_ctrls.perBankRdBursts::4           1882760                       # Per bank write bursts
system.mem_ctrls.perBankRdBursts::5            836956                       # Per bank write bursts
system.mem_ctrls.perBankRdBursts::6            717132                       # Per bank write bursts
system.mem_ctrls.perBankRdBursts::7            995120                       # Per bank write bursts
system.mem_ctrls.perBankRdBursts::8           1640941                       # Per bank write bursts
system.mem_ctrls.perBankRdBursts::9            675041                       # Per bank write bursts
system.mem_ctrls.perBankRdBursts::10           640859                       # Per bank write bursts
system.mem_ctrls.perBankRdBursts::11           656145                       # Per bank write bursts
system.mem_ctrls.perBankRdBursts::12           711380                       # Per bank write bursts
system.mem_ctrls.perBankRdBursts::13           715595                       # Per bank write bursts
system.mem_ctrls.perBankRdBursts::14           672667                       # Per bank write bursts
system.mem_ctrls.perBankRdBursts::15           909714                       # Per bank write bursts
system.mem_ctrls.perBankWrBursts::0           1002145                       # Per bank write bursts
system.mem_ctrls.perBankWrBursts::1           1719339                       # Per bank write bursts
system.mem_ctrls.perBankWrBursts::2            808987                       # Per bank write bursts
system.mem_ctrls.perBankWrBursts::3           1052053                       # Per bank write bursts
system.mem_ctrls.perBankWrBursts::4           2156758                       # Per bank write bursts
system.mem_ctrls.perBankWrBursts::5            864789                       # Per bank write bursts
system.mem_ctrls.perBankWrBursts::6            726971                       # Per bank write bursts
system.mem_ctrls.perBankWrBursts::7           1027651                       # Per bank write bursts
system.mem_ctrls.perBankWrBursts::8           1872551                       # Per bank write bursts
system.mem_ctrls.perBankWrBursts::9            697596                       # Per bank write bursts
system.mem_ctrls.perBankWrBursts::10           643553                       # Per bank write bursts
system.mem_ctrls.perBankWrBursts::11           676032                       # Per bank write bursts
system.mem_ctrls.perBankWrBursts::12           750837                       # Per bank write bursts
system.mem_ctrls.perBankWrBursts::13           725966                       # Per bank write bursts
system.mem_ctrls.perBankWrBursts::14           682899                       # Per bank write bursts
system.mem_ctrls.perBankWrBursts::15          1002326                       # Per bank write bursts
system.mem_ctrls.numRdRetry                         0                       # Number of times read queue was full causing retry
system.mem_ctrls.numWrRetry                         0                       # Number of times write queue was full causing retry
system.mem_ctrls.totGap                  1188410339500                       # Total gap between requests
system.mem_ctrls.readPktSize::0                     0                       # Read request sizes (log2)
system.mem_ctrls.readPktSize::1                     0                       # Read request sizes (log2)
system.mem_ctrls.readPktSize::2                     0                       # Read request sizes (log2)
system.mem_ctrls.readPktSize::3                     0                       # Read request sizes (log2)
system.mem_ctrls.readPktSize::4                     0                       # Read request sizes (log2)
system.mem_ctrls.readPktSize::5                     0                       # Read request sizes (log2)
system.mem_ctrls.readPktSize::6              16644088                       # Read request sizes (log2)
system.mem_ctrls.writePktSize::0                    0                       # Write request sizes (log2)
system.mem_ctrls.writePktSize::1                    0                       # Write request sizes (log2)
system.mem_ctrls.writePktSize::2                    0                       # Write request sizes (log2)
system.mem_ctrls.writePktSize::3                    0                       # Write request sizes (log2)
system.mem_ctrls.writePktSize::4                    0                       # Write request sizes (log2)
system.mem_ctrls.writePktSize::5                    0                       # Write request sizes (log2)
system.mem_ctrls.writePktSize::6             16588666                       # Write request sizes (log2)
system.mem_ctrls.rdQLenPdf::0                 7656165                       # What read queue length does an incoming req see
system.mem_ctrls.rdQLenPdf::1                 7641046                       # What read queue length does an incoming req see
system.mem_ctrls.rdQLenPdf::2                   72267                       # What read queue length does an incoming req see
system.mem_ctrls.rdQLenPdf::3                   65305                       # What read queue length does an incoming req see
system.mem_ctrls.rdQLenPdf::4                    2201                       # What read queue length does an incoming req see
system.mem_ctrls.rdQLenPdf::5                    1875                       # What read queue length does an incoming req see
system.mem_ctrls.rdQLenPdf::6                      21                       # What read queue length does an incoming req see
system.mem_ctrls.rdQLenPdf::7                      20                       # What read queue length does an incoming req see
system.mem_ctrls.rdQLenPdf::8                       0                       # What read queue length does an incoming req see
system.mem_ctrls.rdQLenPdf::9                       0                       # What read queue length does an incoming req see
system.mem_ctrls.rdQLenPdf::10                      0                       # What read queue length does an incoming req see
system.mem_ctrls.rdQLenPdf::11                      0                       # What read queue length does an incoming req see
system.mem_ctrls.rdQLenPdf::12                      0                       # What read queue length does an incoming req see
system.mem_ctrls.rdQLenPdf::13                      0                       # What read queue length does an incoming req see
system.mem_ctrls.rdQLenPdf::14                      0                       # What read queue length does an incoming req see
system.mem_ctrls.rdQLenPdf::15                      0                       # What read queue length does an incoming req see
system.mem_ctrls.rdQLenPdf::16                      0                       # What read queue length does an incoming req see
system.mem_ctrls.rdQLenPdf::17                      0                       # What read queue length does an incoming req see
system.mem_ctrls.rdQLenPdf::18                      0                       # What read queue length does an incoming req see
system.mem_ctrls.rdQLenPdf::19                      0                       # What read queue length does an incoming req see
system.mem_ctrls.rdQLenPdf::20                      0                       # What read queue length does an incoming req see
system.mem_ctrls.rdQLenPdf::21                      0                       # What read queue length does an incoming req see
system.mem_ctrls.rdQLenPdf::22                      0                       # What read queue length does an incoming req see
system.mem_ctrls.rdQLenPdf::23                      0                       # What read queue length does an incoming req see
system.mem_ctrls.rdQLenPdf::24                      0                       # What read queue length does an incoming req see
system.mem_ctrls.rdQLenPdf::25                      0                       # What read queue length does an incoming req see
system.mem_ctrls.rdQLenPdf::26                      0                       # What read queue length does an incoming req see
system.mem_ctrls.rdQLenPdf::27                      0                       # What read queue length does an incoming req see
system.mem_ctrls.rdQLenPdf::28                      0                       # What read queue length does an incoming req see
system.mem_ctrls.rdQLenPdf::29                      0                       # What read queue length does an incoming req see
system.mem_ctrls.rdQLenPdf::30                      0                       # What read queue length does an incoming req see
system.mem_ctrls.rdQLenPdf::31                      0                       # What read queue length does an incoming req see
system.mem_ctrls.wrQLenPdf::0                       0                       # What write queue length does an incoming req see
system.mem_ctrls.wrQLenPdf::1                       0                       # What write queue length does an incoming req see
system.mem_ctrls.wrQLenPdf::2                       0                       # What write queue length does an incoming req see
system.mem_ctrls.wrQLenPdf::3                       0                       # What write queue length does an incoming req see
system.mem_ctrls.wrQLenPdf::4                       0                       # What write queue length does an incoming req see
system.mem_ctrls.wrQLenPdf::5                       0                       # What write queue length does an incoming req see
system.mem_ctrls.wrQLenPdf::6                       0                       # What write queue length does an incoming req see
system.mem_ctrls.wrQLenPdf::7                       0                       # What write queue length does an incoming req see
system.mem_ctrls.wrQLenPdf::8                       0                       # What write queue length does an incoming req see
system.mem_ctrls.wrQLenPdf::9                       0                       # What write queue length does an incoming req see
system.mem_ctrls.wrQLenPdf::10                      0                       # What write queue length does an incoming req see
system.mem_ctrls.wrQLenPdf::11                      0                       # What write queue length does an incoming req see
system.mem_ctrls.wrQLenPdf::12                      0                       # What write queue length does an incoming req see
system.mem_ctrls.wrQLenPdf::13                      0                       # What write queue length does an incoming req see
system.mem_ctrls.wrQLenPdf::14                      0                       # What write queue length does an incoming req see
system.mem_ctrls.wrQLenPdf::15                  47772                       # What write queue length does an incoming req see
system.mem_ctrls.wrQLenPdf::16                  51397                       # What write queue length does an incoming req see
system.mem_ctrls.wrQLenPdf::17                 791234                       # What write queue length does an incoming req see
system.mem_ctrls.wrQLenPdf::18                 990911                       # What write queue length does an incoming req see
system.mem_ctrls.wrQLenPdf::19                1018025                       # What write queue length does an incoming req see
system.mem_ctrls.wrQLenPdf::20                1026503                       # What write queue length does an incoming req see
system.mem_ctrls.wrQLenPdf::21                1025561                       # What write queue length does an incoming req see
system.mem_ctrls.wrQLenPdf::22                1026603                       # What write queue length does an incoming req see
system.mem_ctrls.wrQLenPdf::23                1028864                       # What write queue length does an incoming req see
system.mem_ctrls.wrQLenPdf::24                1028244                       # What write queue length does an incoming req see
system.mem_ctrls.wrQLenPdf::25                1025735                       # What write queue length does an incoming req see
system.mem_ctrls.wrQLenPdf::26                1023292                       # What write queue length does an incoming req see
system.mem_ctrls.wrQLenPdf::27                1020284                       # What write queue length does an incoming req see
system.mem_ctrls.wrQLenPdf::28                1018590                       # What write queue length does an incoming req see
system.mem_ctrls.wrQLenPdf::29                1017877                       # What write queue length does an incoming req see
system.mem_ctrls.wrQLenPdf::30                1017464                       # What write queue length does an incoming req see
system.mem_ctrls.wrQLenPdf::31                1017143                       # What write queue length does an incoming req see
system.mem_ctrls.wrQLenPdf::32                1016987                       # What write queue length does an incoming req see
system.mem_ctrls.wrQLenPdf::33                 215646                       # What write queue length does an incoming req see
system.mem_ctrls.wrQLenPdf::34                   1270                       # What write queue length does an incoming req see
system.mem_ctrls.wrQLenPdf::35                    491                       # What write queue length does an incoming req see
system.mem_ctrls.wrQLenPdf::36                    238                       # What write queue length does an incoming req see
system.mem_ctrls.wrQLenPdf::37                    102                       # What write queue length does an incoming req see
system.mem_ctrls.wrQLenPdf::38                     63                       # What write queue length does an incoming req see
system.mem_ctrls.wrQLenPdf::39                     28                       # What write queue length does an incoming req see
system.mem_ctrls.wrQLenPdf::40                     20                       # What write queue length does an incoming req see
system.mem_ctrls.wrQLenPdf::41                     11                       # What write queue length does an incoming req see
system.mem_ctrls.wrQLenPdf::42                      9                       # What write queue length does an incoming req see
system.mem_ctrls.wrQLenPdf::43                      9                       # What write queue length does an incoming req see
system.mem_ctrls.wrQLenPdf::44                     13                       # What write queue length does an incoming req see
system.mem_ctrls.wrQLenPdf::45                     12                       # What write queue length does an incoming req see
system.mem_ctrls.wrQLenPdf::46                     14                       # What write queue length does an incoming req see
system.mem_ctrls.wrQLenPdf::47                     10                       # What write queue length does an incoming req see
system.mem_ctrls.wrQLenPdf::48                      7                       # What write queue length does an incoming req see
system.mem_ctrls.wrQLenPdf::49                      7                       # What write queue length does an incoming req see
system.mem_ctrls.wrQLenPdf::50                      6                       # What write queue length does an incoming req see
system.mem_ctrls.wrQLenPdf::51                      6                       # What write queue length does an incoming req see
system.mem_ctrls.wrQLenPdf::52                      2                       # What write queue length does an incoming req see
system.mem_ctrls.wrQLenPdf::53                      1                       # What write queue length does an incoming req see
system.mem_ctrls.wrQLenPdf::54                      0                       # What write queue length does an incoming req see
system.mem_ctrls.wrQLenPdf::55                      0                       # What write queue length does an incoming req see
system.mem_ctrls.wrQLenPdf::56                      0                       # What write queue length does an incoming req see
system.mem_ctrls.wrQLenPdf::57                      0                       # What write queue length does an incoming req see
system.mem_ctrls.wrQLenPdf::58                      0                       # What write queue length does an incoming req see
system.mem_ctrls.wrQLenPdf::59                      0                       # What write queue length does an incoming req see
system.mem_ctrls.wrQLenPdf::60                      0                       # What write queue length does an incoming req see
system.mem_ctrls.wrQLenPdf::61                      0                       # What write queue length does an incoming req see
system.mem_ctrls.wrQLenPdf::62                      0                       # What write queue length does an incoming req see
system.mem_ctrls.wrQLenPdf::63                      0                       # What write queue length does an incoming req see
system.mem_ctrls.bytesPerActivate::samples     13834855                       # Bytes accessed per row activation
system.mem_ctrls.bytesPerActivate::mean    147.334920                       # Bytes accessed per row activation
system.mem_ctrls.bytesPerActivate::gmean   137.587545                       # Bytes accessed per row activation
system.mem_ctrls.bytesPerActivate::stdev    73.128298                       # Bytes accessed per row activation
system.mem_ctrls.bytesPerActivate::0-127       604580      4.37%      4.37% # Bytes accessed per row activation
system.mem_ctrls.bytesPerActivate::128-255     11582573     83.72%     88.09% # Bytes accessed per row activation
system.mem_ctrls.bytesPerActivate::256-383      1208915      8.74%     96.83% # Bytes accessed per row activation
system.mem_ctrls.bytesPerActivate::384-511       289223      2.09%     98.92% # Bytes accessed per row activation
system.mem_ctrls.bytesPerActivate::512-639        93878      0.68%     99.60% # Bytes accessed per row activation
system.mem_ctrls.bytesPerActivate::640-767        30123      0.22%     99.82% # Bytes accessed per row activation
system.mem_ctrls.bytesPerActivate::768-895        11496      0.08%     99.90% # Bytes accessed per row activation
system.mem_ctrls.bytesPerActivate::896-1023         5230      0.04%     99.94% # Bytes accessed per row activation
system.mem_ctrls.bytesPerActivate::1024-1151         8837      0.06%    100.00% # Bytes accessed per row activation
system.mem_ctrls.bytesPerActivate::total     13834855                       # Bytes accessed per row activation
system.mem_ctrls.rdPerTurnAround::samples      1016864                       # Reads before turning the bus around for writes
system.mem_ctrls.rdPerTurnAround::mean      15.182858                       # Reads before turning the bus around for writes
system.mem_ctrls.rdPerTurnAround::stdev      2.599266                       # Reads before turning the bus around for writes
system.mem_ctrls.rdPerTurnAround::0-7            4250      0.42%      0.42% # Reads before turning the bus around for writes
system.mem_ctrls.rdPerTurnAround::8-15         314581     30.94%     31.35% # Reads before turning the bus around for writes
system.mem_ctrls.rdPerTurnAround::16-23        691700     68.02%     99.38% # Reads before turning the bus around for writes
system.mem_ctrls.rdPerTurnAround::24-31          2639      0.26%     99.64% # Reads before turning the bus around for writes
system.mem_ctrls.rdPerTurnAround::32-39          2124      0.21%     99.85% # Reads before turning the bus around for writes
system.mem_ctrls.rdPerTurnAround::40-47           961      0.09%     99.94% # Reads before turning the bus around for writes
system.mem_ctrls.rdPerTurnAround::48-55           291      0.03%     99.97% # Reads before turning the bus around for writes
system.mem_ctrls.rdPerTurnAround::56-63           147      0.01%     99.98% # Reads before turning the bus around for writes
system.mem_ctrls.rdPerTurnAround::64-71            95      0.01%     99.99% # Reads before turning the bus around for writes
system.mem_ctrls.rdPerTurnAround::72-79            37      0.00%    100.00% # Reads before turning the bus around for writes
system.mem_ctrls.rdPerTurnAround::80-87            21      0.00%    100.00% # Reads before turning the bus around for writes
system.mem_ctrls.rdPerTurnAround::88-95             9      0.00%    100.00% # Reads before turning the bus around for writes
system.mem_ctrls.rdPerTurnAround::96-103            2      0.00%    100.00% # Reads before turning the bus around for writes
system.mem_ctrls.rdPerTurnAround::120-127            1      0.00%    100.00% # Reads before turning the bus around for writes
system.mem_ctrls.rdPerTurnAround::128-135            1      0.00%    100.00% # Reads before turning the bus around for writes
system.mem_ctrls.rdPerTurnAround::160-167            1      0.00%    100.00% # Reads before turning the bus around for writes
system.mem_ctrls.rdPerTurnAround::168-175            2      0.00%    100.00% # Reads before turning the bus around for writes
system.mem_ctrls.rdPerTurnAround::200-207            1      0.00%    100.00% # Reads before turning the bus around for writes
system.mem_ctrls.rdPerTurnAround::208-215            1      0.00%    100.00% # Reads before turning the bus around for writes
system.mem_ctrls.rdPerTurnAround::total       1016864                       # Reads before turning the bus around for writes
system.mem_ctrls.wrPerTurnAround::samples      1016864                       # Writes before turning the bus around for reads
system.mem_ctrls.wrPerTurnAround::mean      16.138297                       # Writes before turning the bus around for reads
system.mem_ctrls.wrPerTurnAround::gmean     16.127602                       # Writes before turning the bus around for reads
system.mem_ctrls.wrPerTurnAround::stdev      0.631489                       # Writes before turning the bus around for reads
system.mem_ctrls.wrPerTurnAround::16-17        963094     94.71%     94.71% # Writes before turning the bus around for reads
system.mem_ctrls.wrPerTurnAround::18-19         46489      4.57%     99.28% # Writes before turning the bus around for reads
system.mem_ctrls.wrPerTurnAround::20-21          5645      0.56%     99.84% # Writes before turning the bus around for reads
system.mem_ctrls.wrPerTurnAround::22-23          1529      0.15%     99.99% # Writes before turning the bus around for reads
system.mem_ctrls.wrPerTurnAround::24-25            45      0.00%     99.99% # Writes before turning the bus around for reads
system.mem_ctrls.wrPerTurnAround::26-27            25      0.00%    100.00% # Writes before turning the bus around for reads
system.mem_ctrls.wrPerTurnAround::28-29            11      0.00%    100.00% # Writes before turning the bus around for reads
system.mem_ctrls.wrPerTurnAround::30-31             4      0.00%    100.00% # Writes before turning the bus around for reads
system.mem_ctrls.wrPerTurnAround::32-33             3      0.00%    100.00% # Writes before turning the bus around for reads
system.mem_ctrls.wrPerTurnAround::34-35             4      0.00%    100.00% # Writes before turning the bus around for reads
system.mem_ctrls.wrPerTurnAround::36-37             5      0.00%    100.00% # Writes before turning the bus around for reads
system.mem_ctrls.wrPerTurnAround::38-39             1      0.00%    100.00% # Writes before turning the bus around for reads
system.mem_ctrls.wrPerTurnAround::40-41             1      0.00%    100.00% # Writes before turning the bus around for reads
system.mem_ctrls.wrPerTurnAround::46-47             2      0.00%    100.00% # Writes before turning the bus around for reads
system.mem_ctrls.wrPerTurnAround::48-49             2      0.00%    100.00% # Writes before turning the bus around for reads
system.mem_ctrls.wrPerTurnAround::60-61             1      0.00%    100.00% # Writes before turning the bus around for reads
system.mem_ctrls.wrPerTurnAround::62-63             1      0.00%    100.00% # Writes before turning the bus around for reads
system.mem_ctrls.wrPerTurnAround::66-67             2      0.00%    100.00% # Writes before turning the bus around for reads
system.mem_ctrls.wrPerTurnAround::total       1016864                       # Writes before turning the bus around for reads
system.mem_ctrls.totQLat                 570790240020                       # Total ticks spent queuing
system.mem_ctrls.totMemAccLat            860269615020                       # Total ticks spent from burst creation until serviced by the DRAM
system.mem_ctrls.totBusLat                77194500000                       # Total ticks spent in databus transfers
system.mem_ctrls.avgQLat                     36970.91                       # Average queueing delay per DRAM burst
system.mem_ctrls.avgBusLat                    5000.00                       # Average bus latency per DRAM burst
system.mem_ctrls.avgMemAccLat                55720.91                       # Average memory access latency per DRAM burst
system.mem_ctrls.avgRdBW                       831.44                       # Average DRAM read bandwidth in MiByte/s
system.mem_ctrls.avgWrBW                       883.76                       # Average achieved write bandwidth in MiByte/s
system.mem_ctrls.avgRdBWSys                    896.34                       # Average system read bandwidth in MiByte/s
system.mem_ctrls.avgWrBWSys                    893.36                       # Average system write bandwidth in MiByte/s
system.mem_ctrls.peakBW                      12800.00                       # Theoretical peak bandwidth in MiByte/s
system.mem_ctrls.busUtil                        13.40                       # Data bus utilization in percentage
system.mem_ctrls.busUtilRead                     6.50                       # Data bus utilization in percentage for reads
system.mem_ctrls.busUtilWrite                    6.90                       # Data bus utilization in percentage for writes
system.mem_ctrls.avgRdQLen                       2.01                       # Average read queue length when enqueuing
system.mem_ctrls.avgWrQLen                      26.63                       # Average write queue length when enqueuing
system.mem_ctrls.readRowHits                  8630825                       # Number of row buffer hits during reads
system.mem_ctrls.writeRowHits                 9383664                       # Number of row buffer hits during writes
system.mem_ctrls.readRowHitRate                 55.90                       # Row buffer hit rate for reads
system.mem_ctrls.writeRowHitRate                57.18                       # Row buffer hit rate for writes
system.mem_ctrls.avgGap                      71520.42                       # Average gap between requests
system.mem_ctrls.pageHitRate                    56.56                       # Row buffer hit rate, read and write combined
system.mem_ctrls_0.actEnergy              58728279960                       # Energy for activate commands per rank (pJ)
system.mem_ctrls_0.preEnergy              32044200375                       # Energy for precharge commands per rank (pJ)
system.mem_ctrls_0.readEnergy             69164214600                       # Energy for read commands per rank (pJ)
system.mem_ctrls_0.writeEnergy            60978873600                       # Energy for write commands per rank (pJ)
system.mem_ctrls_0.refreshEnergy          78230767680                       # Energy for refresh commands per rank (pJ)
system.mem_ctrls_0.actBackEnergy         801693288495                       # Energy for active background per rank (pJ)
system.mem_ctrls_0.preBackEnergy          15406388250                       # Energy for precharge background per rank (pJ)
system.mem_ctrls_0.totalEnergy           1116246012960                       # Total energy per rank (pJ)
system.mem_ctrls_0.averagePower            931.957460                       # Core power per rank (mW)
system.mem_ctrls_0.memoryStateTime::IDLE  20482090001                       # Time in different power states
system.mem_ctrls_0.memoryStateTime::REF   39683540000                       # Time in different power states
system.mem_ctrls_0.memoryStateTime::PRE_PDN            0                       # Time in different power states
system.mem_ctrls_0.memoryStateTime::ACT  1128241921249                       # Time in different power states
system.mem_ctrls_0.memoryStateTime::ACT_PDN            0                       # Time in different power states
system.mem_ctrls_1.actEnergy              46211853240                       # Energy for activate commands per rank (pJ)
system.mem_ctrls_1.preEnergy              25214800875                       # Energy for precharge commands per rank (pJ)
system.mem_ctrls_1.readEnergy             52010431200                       # Energy for read commands per rank (pJ)
system.mem_ctrls_1.writeEnergy            45992221200                       # Energy for write commands per rank (pJ)
system.mem_ctrls_1.refreshEnergy          78230767680                       # Energy for refresh commands per rank (pJ)
system.mem_ctrls_1.actBackEnergy         793894770225                       # Energy for active background per rank (pJ)
system.mem_ctrls_1.preBackEnergy          22247203500                       # Energy for precharge background per rank (pJ)
system.mem_ctrls_1.totalEnergy           1063802047920                       # Total energy per rank (pJ)
system.mem_ctrls_1.averagePower            888.171809                       # Core power per rank (mW)
system.mem_ctrls_1.memoryStateTime::IDLE  31908108004                       # Time in different power states
system.mem_ctrls_1.memoryStateTime::REF   39683540000                       # Time in different power states
system.mem_ctrls_1.memoryStateTime::PRE_PDN            0                       # Time in different power states
system.mem_ctrls_1.memoryStateTime::ACT  1116816131496                       # Time in different power states
system.mem_ctrls_1.memoryStateTime::ACT_PDN            0                       # Time in different power states
system.cpu_voltage_domain.voltage                   1                       # Voltage in Volts
system.cpu_clk_domain.clock                       500                       # Clock period in ticks
system.cpu0.apic_clk_domain.clock                8000                       # Clock period in ticks
system.cpu0.numCycles                      2379909212                       # number of cpu cycles simulated
system.cpu0.numWorkItemsStarted                     0                       # number of work items this cpu started
system.cpu0.numWorkItemsCompleted                   0                       # number of work items this cpu completed
system.cpu0.kern.inst.arm                           0                       # number of arm instructions executed
system.cpu0.kern.inst.quiesce                       0                       # number of quiesce instructions executed
system.cpu0.committedInsts                    2508333                       # Number of instructions committed
system.cpu0.committedOps                      5106997                       # Number of ops (including micro ops) committed
system.cpu0.num_int_alu_accesses              4978499                       # Number of integer alu accesses
system.cpu0.num_fp_alu_accesses                   372                       # Number of float alu accesses
system.cpu0.num_func_calls                     115984                       # number of times a function call or return occured
system.cpu0.num_conditional_control_insts       416345                       # number of instructions that are conditional controls
system.cpu0.num_int_insts                     4978499                       # number of integer instructions
system.cpu0.num_fp_insts                          372                       # number of float instructions
system.cpu0.num_int_register_reads            9689506                       # number of times the integer registers were read
system.cpu0.num_int_register_writes           4078571                       # number of times the integer registers were written
system.cpu0.num_fp_register_reads                 596                       # number of times the floating registers were read
system.cpu0.num_fp_register_writes                261                       # number of times the floating registers were written
system.cpu0.num_cc_register_reads             3137566                       # number of times the CC registers were read
system.cpu0.num_cc_register_writes            1889729                       # number of times the CC registers were written
system.cpu0.num_mem_refs                      1030040                       # number of memory refs
system.cpu0.num_load_insts                     635034                       # Number of load instructions
system.cpu0.num_store_insts                    395006                       # Number of store instructions
system.cpu0.num_idle_cycles              2362224588.762961                       # Number of idle cycles
system.cpu0.num_busy_cycles              17684623.237039                       # Number of busy cycles
system.cpu0.not_idle_fraction                0.007431                       # Percentage of non-idle cycles
system.cpu0.idle_fraction                    0.992569                       # Percentage of idle cycles
system.cpu0.Branches                           570837                       # Number of branches fetched
system.cpu0.op_class::No_OpClass                44414      0.87%      0.87% # Class of executed instruction
system.cpu0.op_class::IntAlu                  4014105     78.60%     79.47% # Class of executed instruction
system.cpu0.op_class::IntMult                    5264      0.10%     79.57% # Class of executed instruction
system.cpu0.op_class::IntDiv                    13018      0.25%     79.83% # Class of executed instruction
system.cpu0.op_class::FloatAdd                    244      0.00%     79.83% # Class of executed instruction
system.cpu0.op_class::FloatCmp                      0      0.00%     79.83% # Class of executed instruction
system.cpu0.op_class::FloatCvt                      0      0.00%     79.83% # Class of executed instruction
system.cpu0.op_class::FloatMult                     0      0.00%     79.83% # Class of executed instruction
system.cpu0.op_class::FloatDiv                      0      0.00%     79.83% # Class of executed instruction
system.cpu0.op_class::FloatSqrt                     0      0.00%     79.83% # Class of executed instruction
system.cpu0.op_class::SimdAdd                       0      0.00%     79.83% # Class of executed instruction
system.cpu0.op_class::SimdAddAcc                    0      0.00%     79.83% # Class of executed instruction
system.cpu0.op_class::SimdAlu                       0      0.00%     79.83% # Class of executed instruction
system.cpu0.op_class::SimdCmp                       0      0.00%     79.83% # Class of executed instruction
system.cpu0.op_class::SimdCvt                       0      0.00%     79.83% # Class of executed instruction
system.cpu0.op_class::SimdMisc                      0      0.00%     79.83% # Class of executed instruction
system.cpu0.op_class::SimdMult                      0      0.00%     79.83% # Class of executed instruction
system.cpu0.op_class::SimdMultAcc                   0      0.00%     79.83% # Class of executed instruction
system.cpu0.op_class::SimdShift                     0      0.00%     79.83% # Class of executed instruction
system.cpu0.op_class::SimdShiftAcc                  0      0.00%     79.83% # Class of executed instruction
system.cpu0.op_class::SimdSqrt                      0      0.00%     79.83% # Class of executed instruction
system.cpu0.op_class::SimdFloatAdd                  0      0.00%     79.83% # Class of executed instruction
system.cpu0.op_class::SimdFloatAlu                  0      0.00%     79.83% # Class of executed instruction
system.cpu0.op_class::SimdFloatCmp                  0      0.00%     79.83% # Class of executed instruction
system.cpu0.op_class::SimdFloatCvt                  0      0.00%     79.83% # Class of executed instruction
system.cpu0.op_class::SimdFloatDiv                  0      0.00%     79.83% # Class of executed instruction
system.cpu0.op_class::SimdFloatMisc                 0      0.00%     79.83% # Class of executed instruction
system.cpu0.op_class::SimdFloatMult                 0      0.00%     79.83% # Class of executed instruction
system.cpu0.op_class::SimdFloatMultAcc              0      0.00%     79.83% # Class of executed instruction
system.cpu0.op_class::SimdFloatSqrt                 0      0.00%     79.83% # Class of executed instruction
system.cpu0.op_class::MemRead                  635034     12.43%     92.27% # Class of executed instruction
system.cpu0.op_class::MemWrite                 395006      7.73%    100.00% # Class of executed instruction
system.cpu0.op_class::IprAccess                     0      0.00%    100.00% # Class of executed instruction
system.cpu0.op_class::InstPrefetch                  0      0.00%    100.00% # Class of executed instruction
system.cpu0.op_class::total                   5107085                       # Class of executed instruction
system.cpu1.apic_clk_domain.clock                8000                       # Clock period in ticks
system.cpu1.numCycles                      2379040013                       # number of cpu cycles simulated
system.cpu1.numWorkItemsStarted                     0                       # number of work items this cpu started
system.cpu1.numWorkItemsCompleted                   0                       # number of work items this cpu completed
system.cpu1.kern.inst.arm                           0                       # number of arm instructions executed
system.cpu1.kern.inst.quiesce                       0                       # number of quiesce instructions executed
system.cpu1.committedInsts                    2645988                       # Number of instructions committed
system.cpu1.committedOps                      5401187                       # Number of ops (including micro ops) committed
system.cpu1.num_int_alu_accesses              5304465                       # Number of integer alu accesses
system.cpu1.num_fp_alu_accesses                    68                       # Number of float alu accesses
system.cpu1.num_func_calls                     128866                       # number of times a function call or return occured
system.cpu1.num_conditional_control_insts       459299                       # number of instructions that are conditional controls
system.cpu1.num_int_insts                     5304465                       # number of integer instructions
system.cpu1.num_fp_insts                           68                       # number of float instructions
system.cpu1.num_int_register_reads           10380767                       # number of times the integer registers were read
system.cpu1.num_int_register_writes           4362348                       # number of times the integer registers were written
system.cpu1.num_fp_register_reads                  70                       # number of times the floating registers were read
system.cpu1.num_fp_register_writes                 62                       # number of times the floating registers were written
system.cpu1.num_cc_register_reads             3400324                       # number of times the CC registers were read
system.cpu1.num_cc_register_writes            1830237                       # number of times the CC registers were written
system.cpu1.num_mem_refs                      1087718                       # number of memory refs
system.cpu1.num_load_insts                     695655                       # Number of load instructions
system.cpu1.num_store_insts                    392063                       # Number of store instructions
system.cpu1.num_idle_cycles              2359228137.126172                       # Number of idle cycles
system.cpu1.num_busy_cycles              19811875.873828                       # Number of busy cycles
system.cpu1.not_idle_fraction                0.008328                       # Percentage of non-idle cycles
system.cpu1.idle_fraction                    0.991672                       # Percentage of idle cycles
system.cpu1.Branches                           630424                       # Number of branches fetched
system.cpu1.op_class::No_OpClass                58846      1.09%      1.09% # Class of executed instruction
system.cpu1.op_class::IntAlu                  4232866     78.36%     79.45% # Class of executed instruction
system.cpu1.op_class::IntMult                    8733      0.16%     79.61% # Class of executed instruction
system.cpu1.op_class::IntDiv                    13561      0.25%     79.86% # Class of executed instruction
system.cpu1.op_class::FloatAdd                     24      0.00%     79.86% # Class of executed instruction
system.cpu1.op_class::FloatCmp                      0      0.00%     79.86% # Class of executed instruction
system.cpu1.op_class::FloatCvt                      0      0.00%     79.86% # Class of executed instruction
system.cpu1.op_class::FloatMult                     0      0.00%     79.86% # Class of executed instruction
system.cpu1.op_class::FloatDiv                      0      0.00%     79.86% # Class of executed instruction
system.cpu1.op_class::FloatSqrt                     0      0.00%     79.86% # Class of executed instruction
system.cpu1.op_class::SimdAdd                       0      0.00%     79.86% # Class of executed instruction
system.cpu1.op_class::SimdAddAcc                    0      0.00%     79.86% # Class of executed instruction
system.cpu1.op_class::SimdAlu                       0      0.00%     79.86% # Class of executed instruction
system.cpu1.op_class::SimdCmp                       0      0.00%     79.86% # Class of executed instruction
system.cpu1.op_class::SimdCvt                       0      0.00%     79.86% # Class of executed instruction
system.cpu1.op_class::SimdMisc                      0      0.00%     79.86% # Class of executed instruction
system.cpu1.op_class::SimdMult                      0      0.00%     79.86% # Class of executed instruction
system.cpu1.op_class::SimdMultAcc                   0      0.00%     79.86% # Class of executed instruction
system.cpu1.op_class::SimdShift                     0      0.00%     79.86% # Class of executed instruction
system.cpu1.op_class::SimdShiftAcc                  0      0.00%     79.86% # Class of executed instruction
system.cpu1.op_class::SimdSqrt                      0      0.00%     79.86% # Class of executed instruction
system.cpu1.op_class::SimdFloatAdd                  0      0.00%     79.86% # Class of executed instruction
system.cpu1.op_class::SimdFloatAlu                  0      0.00%     79.86% # Class of executed instruction
system.cpu1.op_class::SimdFloatCmp                  0      0.00%     79.86% # Class of executed instruction
system.cpu1.op_class::SimdFloatCvt                  0      0.00%     79.86% # Class of executed instruction
system.cpu1.op_class::SimdFloatDiv                  0      0.00%     79.86% # Class of executed instruction
system.cpu1.op_class::SimdFloatMisc                 0      0.00%     79.86% # Class of executed instruction
system.cpu1.op_class::SimdFloatMult                 0      0.00%     79.86% # Class of executed instruction
system.cpu1.op_class::SimdFloatMultAcc              0      0.00%     79.86% # Class of executed instruction
system.cpu1.op_class::SimdFloatSqrt                 0      0.00%     79.86% # Class of executed instruction
system.cpu1.op_class::MemRead                  695655     12.88%     92.74% # Class of executed instruction
system.cpu1.op_class::MemWrite                 392063      7.26%    100.00% # Class of executed instruction
system.cpu1.op_class::IprAccess                     0      0.00%    100.00% # Class of executed instruction
system.cpu1.op_class::InstPrefetch                  0      0.00%    100.00% # Class of executed instruction
system.cpu1.op_class::total                   5401748                       # Class of executed instruction
system.cpu2.apic_clk_domain.clock                8000                       # Clock period in ticks
system.cpu2.numCycles                      2373606644                       # number of cpu cycles simulated
system.cpu2.numWorkItemsStarted                     0                       # number of work items this cpu started
system.cpu2.numWorkItemsCompleted                   0                       # number of work items this cpu completed
system.cpu2.kern.inst.arm                           0                       # number of arm instructions executed
system.cpu2.kern.inst.quiesce                       0                       # number of quiesce instructions executed
system.cpu2.committedInsts                    3053725                       # Number of instructions committed
system.cpu2.committedOps                      6064535                       # Number of ops (including micro ops) committed
system.cpu2.num_int_alu_accesses              5965060                       # Number of integer alu accesses
system.cpu2.num_fp_alu_accesses                  1813                       # Number of float alu accesses
system.cpu2.num_func_calls                     148952                       # number of times a function call or return occured
system.cpu2.num_conditional_control_insts       544376                       # number of instructions that are conditional controls
system.cpu2.num_int_insts                     5965060                       # number of integer instructions
system.cpu2.num_fp_insts                         1813                       # number of float instructions
system.cpu2.num_int_register_reads           11714914                       # number of times the integer registers were read
system.cpu2.num_int_register_writes           4841398                       # number of times the integer registers were written
system.cpu2.num_fp_register_reads                3040                       # number of times the floating registers were read
system.cpu2.num_fp_register_writes               1440                       # number of times the floating registers were written
system.cpu2.num_cc_register_reads             3966518                       # number of times the CC registers were read
system.cpu2.num_cc_register_writes            2110766                       # number of times the CC registers were written
system.cpu2.num_mem_refs                      1306256                       # number of memory refs
system.cpu2.num_load_insts                     843661                       # Number of load instructions
system.cpu2.num_store_insts                    462595                       # Number of store instructions
system.cpu2.num_idle_cycles              2353886762.179685                       # Number of idle cycles
system.cpu2.num_busy_cycles              19719881.820315                       # Number of busy cycles
system.cpu2.not_idle_fraction                0.008308                       # Percentage of non-idle cycles
system.cpu2.idle_fraction                    0.991692                       # Percentage of idle cycles
system.cpu2.Branches                           723071                       # Number of branches fetched
system.cpu2.op_class::No_OpClass                40237      0.66%      0.66% # Class of executed instruction
system.cpu2.op_class::IntAlu                  4698936     77.48%     78.14% # Class of executed instruction
system.cpu2.op_class::IntMult                    5349      0.09%     78.23% # Class of executed instruction
system.cpu2.op_class::IntDiv                    12493      0.21%     78.44% # Class of executed instruction
system.cpu2.op_class::FloatAdd                   1356      0.02%     78.46% # Class of executed instruction
system.cpu2.op_class::FloatCmp                      0      0.00%     78.46% # Class of executed instruction
system.cpu2.op_class::FloatCvt                      0      0.00%     78.46% # Class of executed instruction
system.cpu2.op_class::FloatMult                     0      0.00%     78.46% # Class of executed instruction
system.cpu2.op_class::FloatDiv                      0      0.00%     78.46% # Class of executed instruction
system.cpu2.op_class::FloatSqrt                     0      0.00%     78.46% # Class of executed instruction
system.cpu2.op_class::SimdAdd                       0      0.00%     78.46% # Class of executed instruction
system.cpu2.op_class::SimdAddAcc                    0      0.00%     78.46% # Class of executed instruction
system.cpu2.op_class::SimdAlu                       0      0.00%     78.46% # Class of executed instruction
system.cpu2.op_class::SimdCmp                       0      0.00%     78.46% # Class of executed instruction
system.cpu2.op_class::SimdCvt                       0      0.00%     78.46% # Class of executed instruction
system.cpu2.op_class::SimdMisc                      0      0.00%     78.46% # Class of executed instruction
system.cpu2.op_class::SimdMult                      0      0.00%     78.46% # Class of executed instruction
system.cpu2.op_class::SimdMultAcc                   0      0.00%     78.46% # Class of executed instruction
system.cpu2.op_class::SimdShift                     0      0.00%     78.46% # Class of executed instruction
system.cpu2.op_class::SimdShiftAcc                  0      0.00%     78.46% # Class of executed instruction
system.cpu2.op_class::SimdSqrt                      0      0.00%     78.46% # Class of executed instruction
system.cpu2.op_class::SimdFloatAdd                  0      0.00%     78.46% # Class of executed instruction
system.cpu2.op_class::SimdFloatAlu                  0      0.00%     78.46% # Class of executed instruction
system.cpu2.op_class::SimdFloatCmp                  0      0.00%     78.46% # Class of executed instruction
system.cpu2.op_class::SimdFloatCvt                  0      0.00%     78.46% # Class of executed instruction
system.cpu2.op_class::SimdFloatDiv                  0      0.00%     78.46% # Class of executed instruction
system.cpu2.op_class::SimdFloatMisc                 0      0.00%     78.46% # Class of executed instruction
system.cpu2.op_class::SimdFloatMult                 0      0.00%     78.46% # Class of executed instruction
system.cpu2.op_class::SimdFloatMultAcc              0      0.00%     78.46% # Class of executed instruction
system.cpu2.op_class::SimdFloatSqrt                 0      0.00%     78.46% # Class of executed instruction
system.cpu2.op_class::MemRead                  843661     13.91%     92.37% # Class of executed instruction
system.cpu2.op_class::MemWrite                 462595      7.63%    100.00% # Class of executed instruction
system.cpu2.op_class::IprAccess                     0      0.00%    100.00% # Class of executed instruction
system.cpu2.op_class::InstPrefetch                  0      0.00%    100.00% # Class of executed instruction
system.cpu2.op_class::total                   6064627                       # Class of executed instruction
system.cpu3.apic_clk_domain.clock                8000                       # Clock period in ticks
system.cpu3.numCycles                      2377792996                       # number of cpu cycles simulated
system.cpu3.numWorkItemsStarted                     0                       # number of work items this cpu started
system.cpu3.numWorkItemsCompleted                   0                       # number of work items this cpu completed
system.cpu3.kern.inst.arm                           0                       # number of arm instructions executed
system.cpu3.kern.inst.quiesce                       0                       # number of quiesce instructions executed
system.cpu3.committedInsts                  269445383                       # Number of instructions committed
system.cpu3.committedOps                    442913811                       # Number of ops (including micro ops) committed
system.cpu3.num_int_alu_accesses            346884032                       # Number of integer alu accesses
system.cpu3.num_fp_alu_accesses             109594796                       # Number of float alu accesses
system.cpu3.num_func_calls                    5385693                       # number of times a function call or return occured
system.cpu3.num_conditional_control_insts     16441966                       # number of instructions that are conditional controls
system.cpu3.num_int_insts                   346884032                       # number of integer instructions
system.cpu3.num_fp_insts                    109594796                       # number of float instructions
system.cpu3.num_int_register_reads          737800249                       # number of times the integer registers were read
system.cpu3.num_int_register_writes         276341057                       # number of times the integer registers were written
system.cpu3.num_fp_register_reads           204618505                       # number of times the floating registers were read
system.cpu3.num_fp_register_writes          105641815                       # number of times the floating registers were written
system.cpu3.num_cc_register_reads           177618248                       # number of times the CC registers were read
system.cpu3.num_cc_register_writes          152879707                       # number of times the CC registers were written
system.cpu3.num_mem_refs                     92975003                       # number of memory refs
system.cpu3.num_load_insts                   73916537                       # Number of load instructions
system.cpu3.num_store_insts                  19058466                       # Number of store instructions
system.cpu3.num_idle_cycles              21321073.526698                       # Number of idle cycles
system.cpu3.num_busy_cycles              2356471922.473302                       # Number of busy cycles
system.cpu3.not_idle_fraction                0.991033                       # Percentage of non-idle cycles
system.cpu3.idle_fraction                    0.008967                       # Percentage of idle cycles
system.cpu3.Branches                         26525932                       # Number of branches fetched
system.cpu3.op_class::No_OpClass              3914702      0.88%      0.88% # Class of executed instruction
system.cpu3.op_class::IntAlu                255005699     57.57%     58.46% # Class of executed instruction
system.cpu3.op_class::IntMult                    4754      0.00%     58.46% # Class of executed instruction
system.cpu3.op_class::IntDiv                      533      0.00%     58.46% # Class of executed instruction
system.cpu3.op_class::FloatAdd               91015655     20.55%     79.01% # Class of executed instruction
system.cpu3.op_class::FloatCmp                      0      0.00%     79.01% # Class of executed instruction
system.cpu3.op_class::FloatCvt                      0      0.00%     79.01% # Class of executed instruction
system.cpu3.op_class::FloatMult                     0      0.00%     79.01% # Class of executed instruction
system.cpu3.op_class::FloatDiv                      0      0.00%     79.01% # Class of executed instruction
system.cpu3.op_class::FloatSqrt                     0      0.00%     79.01% # Class of executed instruction
system.cpu3.op_class::SimdAdd                       0      0.00%     79.01% # Class of executed instruction
system.cpu3.op_class::SimdAddAcc                    0      0.00%     79.01% # Class of executed instruction
system.cpu3.op_class::SimdAlu                       0      0.00%     79.01% # Class of executed instruction
system.cpu3.op_class::SimdCmp                       0      0.00%     79.01% # Class of executed instruction
system.cpu3.op_class::SimdCvt                       0      0.00%     79.01% # Class of executed instruction
system.cpu3.op_class::SimdMisc                      0      0.00%     79.01% # Class of executed instruction
system.cpu3.op_class::SimdMult                      0      0.00%     79.01% # Class of executed instruction
system.cpu3.op_class::SimdMultAcc                   0      0.00%     79.01% # Class of executed instruction
system.cpu3.op_class::SimdShift                     0      0.00%     79.01% # Class of executed instruction
system.cpu3.op_class::SimdShiftAcc                  0      0.00%     79.01% # Class of executed instruction
system.cpu3.op_class::SimdSqrt                      0      0.00%     79.01% # Class of executed instruction
system.cpu3.op_class::SimdFloatAdd                  0      0.00%     79.01% # Class of executed instruction
system.cpu3.op_class::SimdFloatAlu                  0      0.00%     79.01% # Class of executed instruction
system.cpu3.op_class::SimdFloatCmp                  0      0.00%     79.01% # Class of executed instruction
system.cpu3.op_class::SimdFloatCvt                  0      0.00%     79.01% # Class of executed instruction
system.cpu3.op_class::SimdFloatDiv                  0      0.00%     79.01% # Class of executed instruction
system.cpu3.op_class::SimdFloatMisc                 0      0.00%     79.01% # Class of executed instruction
system.cpu3.op_class::SimdFloatMult                 0      0.00%     79.01% # Class of executed instruction
system.cpu3.op_class::SimdFloatMultAcc              0      0.00%     79.01% # Class of executed instruction
system.cpu3.op_class::SimdFloatSqrt                 0      0.00%     79.01% # Class of executed instruction
system.cpu3.op_class::MemRead                73916537     16.69%     95.70% # Class of executed instruction
system.cpu3.op_class::MemWrite               19058466      4.30%    100.00% # Class of executed instruction
system.cpu3.op_class::IprAccess                     0      0.00%    100.00% # Class of executed instruction
system.cpu3.op_class::InstPrefetch                  0      0.00%    100.00% # Class of executed instruction
system.cpu3.op_class::total                 442916346                       # Class of executed instruction
system.iobus.trans_dist::ReadReq                  557                       # Transaction distribution
system.iobus.trans_dist::ReadResp                 557                       # Transaction distribution
system.iobus.trans_dist::WriteReq                2206                       # Transaction distribution
system.iobus.trans_dist::WriteResp               2206                       # Transaction distribution
system.iobus.trans_dist::MessageReq                77                       # Transaction distribution
system.iobus.trans_dist::MessageResp               77                       # Transaction distribution
system.iobus.pkt_count_system.pc.south_bridge.io_apic.int_master::system.ruby.l1_cntrl0.sequencer.pio-slave-port           32                       # Packet count per connected master and slave (bytes)
system.iobus.pkt_count_system.pc.south_bridge.io_apic.int_master::system.ruby.l1_cntrl1.sequencer.pio-slave-port           32                       # Packet count per connected master and slave (bytes)
system.iobus.pkt_count_system.pc.south_bridge.io_apic.int_master::system.ruby.l1_cntrl2.sequencer.pio-slave-port           32                       # Packet count per connected master and slave (bytes)
system.iobus.pkt_count_system.pc.south_bridge.io_apic.int_master::system.ruby.l1_cntrl3.sequencer.pio-slave-port           32                       # Packet count per connected master and slave (bytes)
system.iobus.pkt_count_system.pc.south_bridge.io_apic.int_master::total          128                       # Packet count per connected master and slave (bytes)
system.iobus.pkt_count_system.ruby.l1_cntrl0.sequencer.mem-master-port::system.pc.south_bridge.ide.pio          588                       # Packet count per connected master and slave (bytes)
system.iobus.pkt_count_system.ruby.l1_cntrl0.sequencer.mem-master-port::system.pc.south_bridge.io_apic.pio            8                       # Packet count per connected master and slave (bytes)
system.iobus.pkt_count_system.ruby.l1_cntrl0.sequencer.mem-master-port::system.pc.com_1.pio            2                       # Packet count per connected master and slave (bytes)
system.iobus.pkt_count_system.ruby.l1_cntrl0.sequencer.mem-master-port::system.ruby.l1_cntrl0.sequencer.pio-slave-port          658                       # Packet count per connected master and slave (bytes)
system.iobus.pkt_count_system.ruby.l1_cntrl0.sequencer.mem-master-port::system.ruby.l1_cntrl1.sequencer.pio-slave-port            4                       # Packet count per connected master and slave (bytes)
system.iobus.pkt_count_system.ruby.l1_cntrl0.sequencer.mem-master-port::system.ruby.l1_cntrl3.sequencer.pio-slave-port            4                       # Packet count per connected master and slave (bytes)
system.iobus.pkt_count_system.ruby.l1_cntrl0.sequencer.mem-master-port::total         1264                       # Packet count per connected master and slave (bytes)
system.iobus.pkt_count_system.ruby.l1_cntrl1.sequencer.mem-master-port::system.pc.south_bridge.ide.pio          882                       # Packet count per connected master and slave (bytes)
system.iobus.pkt_count_system.ruby.l1_cntrl1.sequencer.mem-master-port::system.pc.south_bridge.io_apic.pio            6                       # Packet count per connected master and slave (bytes)
system.iobus.pkt_count_system.ruby.l1_cntrl1.sequencer.mem-master-port::system.pc.com_1.pio          176                       # Packet count per connected master and slave (bytes)
system.iobus.pkt_count_system.ruby.l1_cntrl1.sequencer.mem-master-port::system.ruby.l1_cntrl0.sequencer.pio-slave-port            2                       # Packet count per connected master and slave (bytes)
system.iobus.pkt_count_system.ruby.l1_cntrl1.sequencer.mem-master-port::system.ruby.l1_cntrl1.sequencer.pio-slave-port          648                       # Packet count per connected master and slave (bytes)
system.iobus.pkt_count_system.ruby.l1_cntrl1.sequencer.mem-master-port::system.ruby.l1_cntrl2.sequencer.pio-slave-port            2                       # Packet count per connected master and slave (bytes)
system.iobus.pkt_count_system.ruby.l1_cntrl1.sequencer.mem-master-port::total         1716                       # Packet count per connected master and slave (bytes)
system.iobus.pkt_count_system.ruby.l1_cntrl2.sequencer.mem-master-port::system.pc.south_bridge.ide.pio          622                       # Packet count per connected master and slave (bytes)
system.iobus.pkt_count_system.ruby.l1_cntrl2.sequencer.mem-master-port::system.pc.south_bridge.io_apic.pio            8                       # Packet count per connected master and slave (bytes)
system.iobus.pkt_count_system.ruby.l1_cntrl2.sequencer.mem-master-port::system.ruby.l1_cntrl0.sequencer.pio-slave-port            2                       # Packet count per connected master and slave (bytes)
system.iobus.pkt_count_system.ruby.l1_cntrl2.sequencer.mem-master-port::system.ruby.l1_cntrl1.sequencer.pio-slave-port            2                       # Packet count per connected master and slave (bytes)
system.iobus.pkt_count_system.ruby.l1_cntrl2.sequencer.mem-master-port::system.ruby.l1_cntrl2.sequencer.pio-slave-port          648                       # Packet count per connected master and slave (bytes)
system.iobus.pkt_count_system.ruby.l1_cntrl2.sequencer.mem-master-port::system.ruby.l1_cntrl3.sequencer.pio-slave-port            2                       # Packet count per connected master and slave (bytes)
system.iobus.pkt_count_system.ruby.l1_cntrl2.sequencer.mem-master-port::total         1284                       # Packet count per connected master and slave (bytes)
system.iobus.pkt_count_system.ruby.l1_cntrl3.sequencer.mem-master-port::system.pc.south_bridge.ide.pio          622                       # Packet count per connected master and slave (bytes)
system.iobus.pkt_count_system.ruby.l1_cntrl3.sequencer.mem-master-port::system.pc.south_bridge.io_apic.pio            8                       # Packet count per connected master and slave (bytes)
system.iobus.pkt_count_system.ruby.l1_cntrl3.sequencer.mem-master-port::system.ruby.l1_cntrl0.sequencer.pio-slave-port            4                       # Packet count per connected master and slave (bytes)
system.iobus.pkt_count_system.ruby.l1_cntrl3.sequencer.mem-master-port::system.ruby.l1_cntrl1.sequencer.pio-slave-port            2                       # Packet count per connected master and slave (bytes)
system.iobus.pkt_count_system.ruby.l1_cntrl3.sequencer.mem-master-port::system.ruby.l1_cntrl2.sequencer.pio-slave-port            2                       # Packet count per connected master and slave (bytes)
system.iobus.pkt_count_system.ruby.l1_cntrl3.sequencer.mem-master-port::system.ruby.l1_cntrl3.sequencer.pio-slave-port          650                       # Packet count per connected master and slave (bytes)
system.iobus.pkt_count_system.ruby.l1_cntrl3.sequencer.mem-master-port::total         1288                       # Packet count per connected master and slave (bytes)
system.iobus.pkt_count::total                    5680                       # Packet count per connected master and slave (bytes)
system.iobus.pkt_size_system.pc.south_bridge.io_apic.int_master::system.ruby.l1_cntrl0.sequencer.pio-slave-port           64                       # Cumulative packet size per connected master and slave (bytes)
system.iobus.pkt_size_system.pc.south_bridge.io_apic.int_master::system.ruby.l1_cntrl1.sequencer.pio-slave-port           64                       # Cumulative packet size per connected master and slave (bytes)
system.iobus.pkt_size_system.pc.south_bridge.io_apic.int_master::system.ruby.l1_cntrl2.sequencer.pio-slave-port           64                       # Cumulative packet size per connected master and slave (bytes)
system.iobus.pkt_size_system.pc.south_bridge.io_apic.int_master::system.ruby.l1_cntrl3.sequencer.pio-slave-port           64                       # Cumulative packet size per connected master and slave (bytes)
system.iobus.pkt_size_system.pc.south_bridge.io_apic.int_master::total          256                       # Cumulative packet size per connected master and slave (bytes)
system.iobus.pkt_size_system.ruby.l1_cntrl0.sequencer.mem-master-port::system.pc.south_bridge.ide.pio          330                       # Cumulative packet size per connected master and slave (bytes)
system.iobus.pkt_size_system.ruby.l1_cntrl0.sequencer.mem-master-port::system.pc.south_bridge.io_apic.pio           16                       # Cumulative packet size per connected master and slave (bytes)
system.iobus.pkt_size_system.ruby.l1_cntrl0.sequencer.mem-master-port::system.pc.com_1.pio            1                       # Cumulative packet size per connected master and slave (bytes)
system.iobus.pkt_size_system.ruby.l1_cntrl0.sequencer.mem-master-port::system.ruby.l1_cntrl0.sequencer.pio-slave-port         1316                       # Cumulative packet size per connected master and slave (bytes)
system.iobus.pkt_size_system.ruby.l1_cntrl0.sequencer.mem-master-port::system.ruby.l1_cntrl1.sequencer.pio-slave-port            8                       # Cumulative packet size per connected master and slave (bytes)
system.iobus.pkt_size_system.ruby.l1_cntrl0.sequencer.mem-master-port::system.ruby.l1_cntrl3.sequencer.pio-slave-port            8                       # Cumulative packet size per connected master and slave (bytes)
system.iobus.pkt_size_system.ruby.l1_cntrl0.sequencer.mem-master-port::total         1679                       # Cumulative packet size per connected master and slave (bytes)
system.iobus.pkt_size_system.ruby.l1_cntrl1.sequencer.mem-master-port::system.pc.south_bridge.ide.pio          504                       # Cumulative packet size per connected master and slave (bytes)
system.iobus.pkt_size_system.ruby.l1_cntrl1.sequencer.mem-master-port::system.pc.south_bridge.io_apic.pio           12                       # Cumulative packet size per connected master and slave (bytes)
system.iobus.pkt_size_system.ruby.l1_cntrl1.sequencer.mem-master-port::system.pc.com_1.pio           88                       # Cumulative packet size per connected master and slave (bytes)
system.iobus.pkt_size_system.ruby.l1_cntrl1.sequencer.mem-master-port::system.ruby.l1_cntrl0.sequencer.pio-slave-port            4                       # Cumulative packet size per connected master and slave (bytes)
system.iobus.pkt_size_system.ruby.l1_cntrl1.sequencer.mem-master-port::system.ruby.l1_cntrl1.sequencer.pio-slave-port         1296                       # Cumulative packet size per connected master and slave (bytes)
system.iobus.pkt_size_system.ruby.l1_cntrl1.sequencer.mem-master-port::system.ruby.l1_cntrl2.sequencer.pio-slave-port            4                       # Cumulative packet size per connected master and slave (bytes)
system.iobus.pkt_size_system.ruby.l1_cntrl1.sequencer.mem-master-port::total         1908                       # Cumulative packet size per connected master and slave (bytes)
system.iobus.pkt_size_system.ruby.l1_cntrl2.sequencer.mem-master-port::system.pc.south_bridge.ide.pio          350                       # Cumulative packet size per connected master and slave (bytes)
system.iobus.pkt_size_system.ruby.l1_cntrl2.sequencer.mem-master-port::system.pc.south_bridge.io_apic.pio           16                       # Cumulative packet size per connected master and slave (bytes)
system.iobus.pkt_size_system.ruby.l1_cntrl2.sequencer.mem-master-port::system.ruby.l1_cntrl0.sequencer.pio-slave-port            4                       # Cumulative packet size per connected master and slave (bytes)
system.iobus.pkt_size_system.ruby.l1_cntrl2.sequencer.mem-master-port::system.ruby.l1_cntrl1.sequencer.pio-slave-port            4                       # Cumulative packet size per connected master and slave (bytes)
system.iobus.pkt_size_system.ruby.l1_cntrl2.sequencer.mem-master-port::system.ruby.l1_cntrl2.sequencer.pio-slave-port         1296                       # Cumulative packet size per connected master and slave (bytes)
system.iobus.pkt_size_system.ruby.l1_cntrl2.sequencer.mem-master-port::system.ruby.l1_cntrl3.sequencer.pio-slave-port            4                       # Cumulative packet size per connected master and slave (bytes)
system.iobus.pkt_size_system.ruby.l1_cntrl2.sequencer.mem-master-port::total         1674                       # Cumulative packet size per connected master and slave (bytes)
system.iobus.pkt_size_system.ruby.l1_cntrl3.sequencer.mem-master-port::system.pc.south_bridge.ide.pio          350                       # Cumulative packet size per connected master and slave (bytes)
system.iobus.pkt_size_system.ruby.l1_cntrl3.sequencer.mem-master-port::system.pc.south_bridge.io_apic.pio           16                       # Cumulative packet size per connected master and slave (bytes)
system.iobus.pkt_size_system.ruby.l1_cntrl3.sequencer.mem-master-port::system.ruby.l1_cntrl0.sequencer.pio-slave-port            8                       # Cumulative packet size per connected master and slave (bytes)
system.iobus.pkt_size_system.ruby.l1_cntrl3.sequencer.mem-master-port::system.ruby.l1_cntrl1.sequencer.pio-slave-port            4                       # Cumulative packet size per connected master and slave (bytes)
system.iobus.pkt_size_system.ruby.l1_cntrl3.sequencer.mem-master-port::system.ruby.l1_cntrl2.sequencer.pio-slave-port            4                       # Cumulative packet size per connected master and slave (bytes)
system.iobus.pkt_size_system.ruby.l1_cntrl3.sequencer.mem-master-port::system.ruby.l1_cntrl3.sequencer.pio-slave-port         1300                       # Cumulative packet size per connected master and slave (bytes)
system.iobus.pkt_size_system.ruby.l1_cntrl3.sequencer.mem-master-port::total         1682                       # Cumulative packet size per connected master and slave (bytes)
system.iobus.pkt_size::total                     7199                       # Cumulative packet size per connected master and slave (bytes)
system.iobus.reqLayer2.occupancy              2381500                       # Layer occupancy (ticks)
system.iobus.reqLayer2.utilization                0.0                       # Layer utilization (%)
system.iobus.reqLayer8.occupancy                26996                       # Layer occupancy (ticks)
system.iobus.reqLayer8.utilization                0.0                       # Layer utilization (%)
system.iobus.reqLayer12.occupancy              113000                       # Layer occupancy (ticks)
system.iobus.reqLayer12.utilization               0.0                       # Layer utilization (%)
system.iobus.reqLayer17.occupancy              764484                       # Layer occupancy (ticks)
system.iobus.reqLayer17.utilization               0.0                       # Layer utilization (%)
system.iobus.reqLayer18.occupancy              795985                       # Layer occupancy (ticks)
system.iobus.reqLayer18.utilization               0.0                       # Layer utilization (%)
system.iobus.reqLayer19.occupancy              807982                       # Layer occupancy (ticks)
system.iobus.reqLayer19.utilization               0.0                       # Layer utilization (%)
system.iobus.reqLayer20.occupancy              929675                       # Layer occupancy (ticks)
system.iobus.reqLayer20.utilization               0.0                       # Layer utilization (%)
system.iobus.respLayer0.occupancy              110941                       # Layer occupancy (ticks)
system.iobus.respLayer0.utilization               0.0                       # Layer utilization (%)
system.iobus.respLayer2.occupancy              910500                       # Layer occupancy (ticks)
system.iobus.respLayer2.utilization               0.0                       # Layer utilization (%)
system.iobus.respLayer4.occupancy             1229000                       # Layer occupancy (ticks)
system.iobus.respLayer4.utilization               0.0                       # Layer utilization (%)
system.iobus.respLayer6.occupancy              921000                       # Layer occupancy (ticks)
system.iobus.respLayer6.utilization               0.0                       # Layer utilization (%)
system.iobus.respLayer8.occupancy              923500                       # Layer occupancy (ticks)
system.iobus.respLayer8.utilization               0.0                       # Layer utilization (%)
system.pc.south_bridge.ide.disks.dma_read_full_pages          886                       # Number of full page size DMA reads (not PRD).
[...]
system.ruby.LD.Directory.miss_type_mach_latency_hist_seqr |     2679121     18.53%     18.53% |     9865806     68.25%     86.78% |     1514274     10.48%     97.26% |      215550      1.49%     98.75% |      111566      0.77%     99.52% |       43469      0.30%     99.82% |       12383      0.09%     99.91% |       12678      0.09%    100.00% |         714      0.00%    100.00% |           7      0.00%    100.00%
system.ruby.LD.Directory.miss_type_mach_latency_hist_seqr::total     14455568                      
system.ruby.ST.L1Cache.miss_type_mach_latency_hist_seqr::bucket_size            8                      
system.ruby.ST.L1Cache.miss_type_mach_latency_hist_seqr::max_bucket           79                      
system.ruby.ST.L1Cache.miss_type_mach_latency_hist_seqr::samples          743                      
system.ruby.ST.L1Cache.miss_type_mach_latency_hist_seqr::mean    51.063257                      
system.ruby.ST.L1Cache.miss_type_mach_latency_hist_seqr::gmean    50.916311                      
system.ruby.ST.L1Cache.miss_type_mach_latency_hist_seqr::stdev     3.814787                      
system.ruby.ST.L1Cache.miss_type_mach_latency_hist_seqr |           0      0.00%      0.00% |           0      0.00%      0.00% |           0      0.00%      0.00% |           0      0.00%      0.00% |           0      0.00%      0.00% |         193     25.98%     25.98% |         527     70.93%     96.90% |          23      3.10%    100.00% |           0      0.00%    100.00% |           0      0.00%    100.00%
system.ruby.ST.L1Cache.miss_type_mach_latency_hist_seqr::total          743                      
system.ruby.ST.Directory.miss_type_mach_latency_hist_seqr::bucket_size          128                      
system.ruby.ST.Directory.miss_type_mach_latency_hist_seqr::max_bucket         1279                      
system.ruby.ST.Directory.miss_type_mach_latency_hist_seqr::samples        74933                      
system.ruby.ST.Directory.miss_type_mach_latency_hist_seqr::mean   153.670372                      
system.ruby.ST.Directory.miss_type_mach_latency_hist_seqr::gmean   130.012470                      
system.ruby.ST.Directory.miss_type_mach_latency_hist_seqr::stdev   100.204356                      
system.ruby.ST.Directory.miss_type_mach_latency_hist_seqr |       37678     50.28%     50.28% |       27641     36.89%     87.17% |        7183      9.59%     96.76% |        1490      1.99%     98.74% |         588      0.78%     99.53% |         189      0.25%     99.78% |          60      0.08%     99.86% |         100      0.13%     99.99% |           4      0.01%    100.00% |           0      0.00%    100.00%
system.ruby.ST.Directory.miss_type_mach_latency_hist_seqr::total        74933                      
system.ruby.IFETCH.L1Cache.miss_type_mach_latency_hist_seqr::bucket_size           32                      
system.ruby.IFETCH.L1Cache.miss_type_mach_latency_hist_seqr::max_bucket          319                      
system.ruby.IFETCH.L1Cache.miss_type_mach_latency_hist_seqr::samples       335160                      
system.ruby.IFETCH.L1Cache.miss_type_mach_latency_hist_seqr::mean    47.791789                      
system.ruby.IFETCH.L1Cache.miss_type_mach_latency_hist_seqr::gmean    47.635666                      
system.ruby.IFETCH.L1Cache.miss_type_mach_latency_hist_seqr::stdev     4.054297                      
system.ruby.IFETCH.L1Cache.miss_type_mach_latency_hist_seqr |           0      0.00%      0.00% |      335085     99.98%     99.98% |          50      0.01%     99.99% |           9      0.00%    100.00% |           4      0.00%    100.00% |           5      0.00%    100.00% |           1      0.00%    100.00% |           2      0.00%    100.00% |           4      0.00%    100.00% |           0      0.00%    100.00%
system.ruby.IFETCH.L1Cache.miss_type_mach_latency_hist_seqr::total       335160                      
system.ruby.IFETCH.Directory.miss_type_mach_latency_hist_seqr::bucket_size          128                      
system.ruby.IFETCH.Directory.miss_type_mach_latency_hist_seqr::max_bucket         1279                      
system.ruby.IFETCH.Directory.miss_type_mach_latency_hist_seqr::samples      1383762                      
system.ruby.IFETCH.Directory.miss_type_mach_latency_hist_seqr::mean   134.926613                      
system.ruby.IFETCH.Directory.miss_type_mach_latency_hist_seqr::gmean   109.752072                      
system.ruby.IFETCH.Directory.miss_type_mach_latency_hist_seqr::stdev    94.916543                      
system.ruby.IFETCH.Directory.miss_type_mach_latency_hist_seqr |      727636     52.58%     52.58% |      520847     37.64%     90.22% |      104425      7.55%     97.77% |       17635      1.27%     99.04% |        8146      0.59%     99.63% |        3206      0.23%     99.87% |         961      0.07%     99.93% |         845      0.06%    100.00% |          61      0.00%    100.00% |           0      0.00%    100.00%
system.ruby.IFETCH.Directory.miss_type_mach_latency_hist_seqr::total      1383762                      
system.ruby.RMW_Read.L1Cache.miss_type_mach_latency_hist_seqr::bucket_size            8                      
system.ruby.RMW_Read.L1Cache.miss_type_mach_latency_hist_seqr::max_bucket           79                      
system.ruby.RMW_Read.L1Cache.miss_type_mach_latency_hist_seqr::samples          851                      
system.ruby.RMW_Read.L1Cache.miss_type_mach_latency_hist_seqr::mean    46.175088                      
system.ruby.RMW_Read.L1Cache.miss_type_mach_latency_hist_seqr::gmean    46.094744                      
system.ruby.RMW_Read.L1Cache.miss_type_mach_latency_hist_seqr::stdev     2.847272                      
system.ruby.RMW_Read.L1Cache.miss_type_mach_latency_hist_seqr |           0      0.00%      0.00% |           0      0.00%      0.00% |           0      0.00%      0.00% |           0      0.00%      0.00% |           0      0.00%      0.00% |         723     84.96%     84.96% |         122     14.34%     99.29% |           6      0.71%    100.00% |           0      0.00%    100.00% |           0      0.00%    100.00%
system.ruby.RMW_Read.L1Cache.miss_type_mach_latency_hist_seqr::total          851                      
system.ruby.RMW_Read.Directory.miss_type_mach_latency_hist_seqr::bucket_size          128                      
system.ruby.RMW_Read.Directory.miss_type_mach_latency_hist_seqr::max_bucket         1279                      
system.ruby.RMW_Read.Directory.miss_type_mach_latency_hist_seqr::samples        23053                      
system.ruby.RMW_Read.Directory.miss_type_mach_latency_hist_seqr::mean   168.260183                      
system.ruby.RMW_Read.Directory.miss_type_mach_latency_hist_seqr::gmean   149.377454                      
system.ruby.RMW_Read.Directory.miss_type_mach_latency_hist_seqr::stdev    89.560576                      
system.ruby.RMW_Read.Directory.miss_type_mach_latency_hist_seqr |        5643     24.48%     24.48% |       14649     63.54%     88.02% |        2196      9.53%     97.55% |         291      1.26%     98.81% |         157      0.68%     99.49% |          76      0.33%     99.82% |          27      0.12%     99.94% |          14      0.06%    100.00% |           0      0.00%    100.00% |           0      0.00%    100.00%
system.ruby.RMW_Read.Directory.miss_type_mach_latency_hist_seqr::total        23053                      
system.ruby.Locked_RMW_Read.L1Cache.miss_type_mach_latency_hist_seqr::bucket_size            8                      
system.ruby.Locked_RMW_Read.L1Cache.miss_type_mach_latency_hist_seqr::max_bucket           79                      
system.ruby.Locked_RMW_Read.L1Cache.miss_type_mach_latency_hist_seqr::samples         2364                      
system.ruby.Locked_RMW_Read.L1Cache.miss_type_mach_latency_hist_seqr::mean    48.617597                      
system.ruby.Locked_RMW_Read.L1Cache.miss_type_mach_latency_hist_seqr::gmean    48.447649                      
system.ruby.Locked_RMW_Read.L1Cache.miss_type_mach_latency_hist_seqr::stdev     4.108984                      
system.ruby.Locked_RMW_Read.L1Cache.miss_type_mach_latency_hist_seqr |           0      0.00%      0.00% |           0      0.00%      0.00% |           0      0.00%      0.00% |           0      0.00%      0.00% |           0      0.00%      0.00% |        1304     55.16%     55.16% |        1030     43.57%     98.73% |          28      1.18%     99.92% |           2      0.08%    100.00% |           0      0.00%    100.00%
system.ruby.Locked_RMW_Read.L1Cache.miss_type_mach_latency_hist_seqr::total         2364                      
system.ruby.Locked_RMW_Read.Directory.miss_type_mach_latency_hist_seqr::bucket_size          128                      
system.ruby.Locked_RMW_Read.Directory.miss_type_mach_latency_hist_seqr::max_bucket         1279                      
system.ruby.Locked_RMW_Read.Directory.miss_type_mach_latency_hist_seqr::samples      5830550                      
system.ruby.Locked_RMW_Read.Directory.miss_type_mach_latency_hist_seqr::mean   183.527099                      
system.ruby.Locked_RMW_Read.Directory.miss_type_mach_latency_hist_seqr::gmean   170.828828                      
system.ruby.Locked_RMW_Read.Directory.miss_type_mach_latency_hist_seqr::stdev    83.407348                      
system.ruby.Locked_RMW_Read.Directory.miss_type_mach_latency_hist_seqr |      355365      6.09%      6.09% |     4685138     80.35%     86.45% |      630219     10.81%     97.26% |       87142      1.49%     98.75% |       43908      0.75%     99.51% |       17945      0.31%     99.81% |        5489      0.09%     99.91% |        5106      0.09%    100.00% |         237      0.00%    100.00% |           1      0.00%    100.00%
system.ruby.Locked_RMW_Read.Directory.miss_type_mach_latency_hist_seqr::total      5830550                      
system.ruby.Directory_Controller.GETX        13748398      0.00%      0.00%
system.ruby.Directory_Controller.PUTX        13474522      0.00%      0.00%
system.ruby.Directory_Controller.PUTX_NotOwner            5      0.00%      0.00%
system.ruby.Directory_Controller.DMA_READ        28903      0.00%      0.00%
system.ruby.Directory_Controller.DMA_WRITE         1248      0.00%      0.00%
system.ruby.Directory_Controller.Memory_Data     13503444      0.00%      0.00%
system.ruby.Directory_Controller.Memory_Ack     13475770      0.00%      0.00%
system.ruby.Directory_Controller.I.GETX      13474617      0.00%      0.00%
system.ruby.Directory_Controller.I.DMA_READ        28827      0.00%      0.00%
system.ruby.Directory_Controller.I.DMA_WRITE         1248      0.00%      0.00%
system.ruby.Directory_Controller.M.GETX        273385      0.00%      0.00%
system.ruby.Directory_Controller.M.PUTX      13474446      0.00%      0.00%
system.ruby.Directory_Controller.M.PUTX_NotOwner            5      0.00%      0.00%
system.ruby.Directory_Controller.M.DMA_READ           76      0.00%      0.00%
system.ruby.Directory_Controller.M_DRD.PUTX           76      0.00%      0.00%
system.ruby.Directory_Controller.M_DRDI.Memory_Ack           76      0.00%      0.00%
system.ruby.Directory_Controller.IM.GETX          385      0.00%      0.00%
system.ruby.Directory_Controller.IM.Memory_Data     13474617      0.00%      0.00%
system.ruby.Directory_Controller.MI.GETX           11      0.00%      0.00%
system.ruby.Directory_Controller.MI.Memory_Ack     13474446      0.00%      0.00%
system.ruby.Directory_Controller.ID.Memory_Data        28827      0.00%      0.00%
system.ruby.Directory_Controller.ID_W.Memory_Ack         1248      0.00%      0.00%
system.ruby.DMA_Controller.ReadRequest   |       28903    100.00%    100.00% |           0      0.00%    100.00%
system.ruby.DMA_Controller.ReadRequest::total        28903                      
system.ruby.DMA_Controller.WriteRequest  |        1248    100.00%    100.00% |           0      0.00%    100.00%
system.ruby.DMA_Controller.WriteRequest::total         1248                      
system.ruby.DMA_Controller.Data          |       28903    100.00%    100.00% |           0      0.00%    100.00%
system.ruby.DMA_Controller.Data::total          28903                      
system.ruby.DMA_Controller.Ack           |        1248    100.00%    100.00% |           0      0.00%    100.00%
system.ruby.DMA_Controller.Ack::total            1248                      
system.ruby.DMA_Controller.READY.ReadRequest |       28903    100.00%    100.00% |           0      0.00%    100.00%
system.ruby.DMA_Controller.READY.ReadRequest::total        28903                      
system.ruby.DMA_Controller.READY.WriteRequest |        1248    100.00%    100.00% |           0      0.00%    100.00%
system.ruby.DMA_Controller.READY.WriteRequest::total         1248                      
system.ruby.DMA_Controller.BUSY_RD.Data  |       28903    100.00%    100.00% |           0      0.00%    100.00%
system.ruby.DMA_Controller.BUSY_RD.Data::total        28903                      
system.ruby.DMA_Controller.BUSY_WR.Ack   |        1248    100.00%    100.00% |           0      0.00%    100.00%
system.ruby.DMA_Controller.BUSY_WR.Ack::total         1248                      
system.ruby.L1Cache_Controller.Load      |     1186869      0.93%      0.93% |     1054366      0.82%      1.75% |    37191975     29.09%     30.84% |    88437270     69.16%    100.00%
system.ruby.L1Cache_Controller.Load::total    127870480                      
system.ruby.L1Cache_Controller.Ifetch    |     6468721      1.26%      1.26% |     5290150      1.03%      2.29% |   135919914     26.43%     28.72% |   366558118     71.28%    100.00%
system.ruby.L1Cache_Controller.Ifetch::total    514236903                      
system.ruby.L1Cache_Controller.Store     |      985925      2.32%      2.32% |      736303      1.73%      4.05% |    16001739     37.66%     41.72% |    24763969     58.28%    100.00%
system.ruby.L1Cache_Controller.Store::total     42487936                      
system.ruby.L1Cache_Controller.Data      |      164787      1.20%      1.20% |      150099      1.09%      2.29% |     5164638     37.57%     39.86% |     8268478     60.14%    100.00%
system.ruby.L1Cache_Controller.Data::total     13748002                      
system.ruby.L1Cache_Controller.Fwd_GETX  |       89648     32.79%     32.79% |       89881     32.88%     65.67% |       62351     22.81%     88.48% |       31505     11.52%    100.00%
system.ruby.L1Cache_Controller.Fwd_GETX::total       273385                      
system.ruby.L1Cache_Controller.Inv       |          32     21.05%     21.05% |          52     34.21%     55.26% |          34     22.37%     77.63% |          34     22.37%    100.00%
system.ruby.L1Cache_Controller.Inv::total          152                      
system.ruby.L1Cache_Controller.Replacement |       90445      0.67%      0.67% |       73608      0.54%      1.21% |     5114047     37.82%     39.03% |     8243790     60.97%    100.00%
system.ruby.L1Cache_Controller.Replacement::total     13521890                      
system.ruby.L1Cache_Controller.Writeback_Ack |       75110      0.56%      0.56% |       59976      0.45%      1.00% |     5102656     37.87%     38.87% |     8236780     61.13%    100.00%
system.ruby.L1Cache_Controller.Writeback_Ack::total     13474522                      
system.ruby.L1Cache_Controller.Writeback_Nack |           1     20.00%     20.00% |           2     40.00%     60.00% |           2     40.00%    100.00% |           0      0.00%    100.00%
system.ruby.L1Cache_Controller.Writeback_Nack::total            5                      
system.ruby.L1Cache_Controller.I.Load    |       50411      0.55%      0.55% |       47149      0.51%      1.06% |     3805442     41.39%     42.45% |     5291126     57.55%    100.00%
system.ruby.L1Cache_Controller.I.Load::total      9194128                      
system.ruby.L1Cache_Controller.I.Ifetch  |       98688     10.19%     10.19% |       93685      9.67%     19.87% |      135391     13.98%     33.85% |      640602     66.15%    100.00%
system.ruby.L1Cache_Controller.I.Ifetch::total       968366                      
system.ruby.L1Cache_Controller.I.Store   |       15688      0.44%      0.44% |        9265      0.26%      0.70% |     1223805     34.13%     34.83% |     2336750     65.17%    100.00%
system.ruby.L1Cache_Controller.I.Store::total      3585508                      
system.ruby.L1Cache_Controller.I.Replacement |       15350     32.36%     32.36% |       13656     28.79%     61.14% |       11406     24.04%     85.19% |        7027     14.81%    100.00%
system.ruby.L1Cache_Controller.I.Replacement::total        47439                      
system.ruby.L1Cache_Controller.II.Writeback_Nack |           1     20.00%     20.00% |           2     40.00%     60.00% |           2     40.00%    100.00% |           0      0.00%    100.00%
system.ruby.L1Cache_Controller.II.Writeback_Nack::total            5                      
system.ruby.L1Cache_Controller.M.Load    |     1136458      0.96%      0.96% |     1007217      0.85%      1.81% |    33386533     28.13%     29.94% |    83146144     70.06%    100.00%
system.ruby.L1Cache_Controller.M.Load::total    118676352                      
system.ruby.L1Cache_Controller.M.Ifetch  |     6370033      1.24%      1.24% |     5196465      1.01%      2.25% |   135784523     26.45%     28.71% |   365917516     71.29%    100.00%
system.ruby.L1Cache_Controller.M.Ifetch::total    513268537                      
system.ruby.L1Cache_Controller.M.Store   |      970237      2.49%      2.49% |      727038      1.87%      4.36% |    14777934     37.99%     42.35% |    22427219     57.65%    100.00%
system.ruby.L1Cache_Controller.M.Store::total     38902428                      
system.ruby.L1Cache_Controller.M.Fwd_GETX |       89647     32.79%     32.79% |       89879     32.88%     65.67% |       62349     22.81%     88.48% |       31505     11.52%    100.00%
system.ruby.L1Cache_Controller.M.Fwd_GETX::total       273380                      
system.ruby.L1Cache_Controller.M.Inv     |          16     21.05%     21.05% |          26     34.21%     55.26% |          17     22.37%     77.63% |          17     22.37%    100.00%
system.ruby.L1Cache_Controller.M.Inv::total           76                      
system.ruby.L1Cache_Controller.M.Replacement |       75095      0.56%      0.56% |       59952      0.44%      1.00% |     5102641     37.87%     38.87% |     8236763     61.13%    100.00%
system.ruby.L1Cache_Controller.M.Replacement::total     13474451                      
system.ruby.L1Cache_Controller.MI.Fwd_GETX |           1     20.00%     20.00% |           2     40.00%     60.00% |           2     40.00%    100.00% |           0      0.00%    100.00%
system.ruby.L1Cache_Controller.MI.Fwd_GETX::total            5                      
system.ruby.L1Cache_Controller.MI.Inv    |          16     21.05%     21.05% |          26     34.21%     55.26% |          17     22.37%     77.63% |          17     22.37%    100.00%
system.ruby.L1Cache_Controller.MI.Inv::total           76                      
system.ruby.L1Cache_Controller.MI.Writeback_Ack |       75110      0.56%      0.56% |       59976      0.45%      1.00% |     5102656     37.87%     38.87% |     8236780     61.13%    100.00%
system.ruby.L1Cache_Controller.MI.Writeback_Ack::total     13474522                      
system.ruby.L1Cache_Controller.IS.Data   |      149099      1.47%      1.47% |      140834      1.39%      2.85% |     3940833     38.78%     41.63% |     5931728     58.37%    100.00%
system.ruby.L1Cache_Controller.IS.Data::total     10162494                      
system.ruby.L1Cache_Controller.IM.Data   |       15688      0.44%      0.44% |        9265      0.26%      0.70% |     1223805     34.13%     34.83% |     2336750     65.17%    100.00%
system.ruby.L1Cache_Controller.IM.Data::total      3585508                      

---------- End Simulation Statistics   ----------
