
---------- Begin Simulation Statistics ----------
sim_seconds                                  4.113143                       # Number of seconds simulated
sim_ticks                                4113143224500                       # Number of ticks simulated
final_tick                               56304861248501                       # Number of ticks from beginning of simulation (restored from checkpoints and never reset)
sim_freq                                 1000000000000                       # Frequency of simulated ticks
host_inst_rate                                 160359                       # Simulator instruction rate (inst/s)
host_op_rate                                   224846                       # Simulator op (including micro ops) rate (op/s)
host_tick_rate                              293001298                       # Simulator tick rate (ticks/s)
host_mem_usage                                1825604                       # Number of bytes of host memory used
host_seconds                                 14037.97                       # Real time elapsed on the host
sim_insts                                  2251121025                       # Number of instructions simulated
sim_ops                                    3156377439                       # Number of ops (including micro ops) simulated
system.voltage_domain.voltage                       1                       # Voltage in Volts
system.clk_domain.clock                          1000                       # Clock period in ticks
system.mem_ctrls.bytes_read::ruby.dir_cntrl0    112521152                       # Number of bytes read from this memory
system.mem_ctrls.bytes_read::total          112521152                       # Number of bytes read from this memory
system.mem_ctrls.bytes_written::ruby.dir_cntrl0     56914368                       # Number of bytes written to this memory
system.mem_ctrls.bytes_written::total        56914368                       # Number of bytes written to this memory
system.mem_ctrls.num_reads::ruby.dir_cntrl0      1758143                       # Number of read requests responded to by this memory
system.mem_ctrls.num_reads::total             1758143                       # Number of read requests responded to by this memory
system.mem_ctrls.num_writes::ruby.dir_cntrl0       889287                       # Number of write requests responded to by this memory
system.mem_ctrls.num_writes::total             889287                       # Number of write requests responded to by this memory
system.mem_ctrls.bw_read::ruby.dir_cntrl0     27356488                       # Total read bandwidth from this memory (bytes/s)
system.mem_ctrls.bw_read::total              27356488                       # Total read bandwidth from this memory (bytes/s)
system.mem_ctrls.bw_write::ruby.dir_cntrl0     13837196                       # Write bandwidth from this memory (bytes/s)
system.mem_ctrls.bw_write::total             13837196                       # Write bandwidth from this memory (bytes/s)
system.mem_ctrls.bw_total::ruby.dir_cntrl0     41193683                       # Total bandwidth to/from this memory (bytes/s)
system.mem_ctrls.bw_total::total             41193683                       # Total bandwidth to/from this memory (bytes/s)
system.mem_ctrls.readReqs                     1758143                       # Number of read requests accepted
system.mem_ctrls.writeReqs                     889287                       # Number of write requests accepted
system.mem_ctrls.readBursts                   1758143                       # Number of DRAM read bursts, including those serviced by the write queue
system.mem_ctrls.writeBursts                   889287                       # Number of DRAM write bursts, including those merged in the write queue
system.mem_ctrls.bytesReadDRAM              112374080                       # Total number of bytes read from DRAM
system.mem_ctrls.bytesReadWrQ                  147072                       # Total number of bytes read from write queue
system.mem_ctrls.bytesWritten                56913536                       # Total number of bytes written to DRAM
system.mem_ctrls.bytesReadSys               112521152                       # Total read bytes from the system interface side
system.mem_ctrls.bytesWrittenSys             56914368                       # Total written bytes from the system interface side
system.mem_ctrls.servicedByWrQ                   2298                       # Number of DRAM read bursts serviced by the write queue
system.mem_ctrls.mergedWrBursts                    22                       # Number of DRAM write bursts merged with an existing one
system.mem_ctrls.neitherReadNorWriteReqs            0                       # Number of requests that are neither read nor write
system.mem_ctrls.perBankRdBursts::0            117934                       # Per bank write bursts
system.mem_ctrls.perBankRdBursts::1            125506                       # Per bank write bursts
system.mem_ctrls.perBankRdBursts::2            103334                       # Per bank write bursts
system.mem_ctrls.perBankRdBursts::3            103302                       # Per bank write bursts
system.mem_ctrls.perBankRdBursts::4            106223                       # Per bank write bursts
system.mem_ctrls.perBankRdBursts::5            102937                       # Per bank write bursts
system.mem_ctrls.perBankRdBursts::6            113329                       # Per bank write bursts
system.mem_ctrls.perBankRdBursts::7            104831                       # Per bank write bursts
system.mem_ctrls.perBankRdBursts::8            109714                       # Per bank write bursts
system.mem_ctrls.perBankRdBursts::9            107136                       # Per bank write bursts
system.mem_ctrls.perBankRdBursts::10           104496                       # Per bank write bursts
system.mem_ctrls.perBankRdBursts::11           106752                       # Per bank write bursts
system.mem_ctrls.perBankRdBursts::12           106158                       # Per bank write bursts
system.mem_ctrls.perBankRdBursts::13           109542                       # Per bank write bursts
system.mem_ctrls.perBankRdBursts::14           118620                       # Per bank write bursts
system.mem_ctrls.perBankRdBursts::15           116031                       # Per bank write bursts
system.mem_ctrls.perBankWrBursts::0             58529                       # Per bank write bursts
system.mem_ctrls.perBankWrBursts::1             66918                       # Per bank write bursts
system.mem_ctrls.perBankWrBursts::2             52649                       # Per bank write bursts
system.mem_ctrls.perBankWrBursts::3             51834                       # Per bank write bursts
system.mem_ctrls.perBankWrBursts::4             52397                       # Per bank write bursts
system.mem_ctrls.perBankWrBursts::5             53280                       # Per bank write bursts
system.mem_ctrls.perBankWrBursts::6             58064                       # Per bank write bursts
system.mem_ctrls.perBankWrBursts::7             53383                       # Per bank write bursts
system.mem_ctrls.perBankWrBursts::8             55831                       # Per bank write bursts
system.mem_ctrls.perBankWrBursts::9             53878                       # Per bank write bursts
system.mem_ctrls.perBankWrBursts::10            52847                       # Per bank write bursts
system.mem_ctrls.perBankWrBursts::11            52320                       # Per bank write bursts
system.mem_ctrls.perBankWrBursts::12            54178                       # Per bank write bursts
system.mem_ctrls.perBankWrBursts::13            55848                       # Per bank write bursts
system.mem_ctrls.perBankWrBursts::14            59281                       # Per bank write bursts
system.mem_ctrls.perBankWrBursts::15            58037                       # Per bank write bursts
system.mem_ctrls.numRdRetry                         0                       # Number of times read queue was full causing retry
system.mem_ctrls.numWrRetry                         0                       # Number of times write queue was full causing retry
system.mem_ctrls.totGap                  4113143014500                       # Total gap between requests
system.mem_ctrls.readPktSize::0                     0                       # Read request sizes (log2)
system.mem_ctrls.readPktSize::1                     0                       # Read request sizes (log2)
system.mem_ctrls.readPktSize::2                     0                       # Read request sizes (log2)
system.mem_ctrls.readPktSize::3                     0                       # Read request sizes (log2)
system.mem_ctrls.readPktSize::4                     0                       # Read request sizes (log2)
system.mem_ctrls.readPktSize::5                     0                       # Read request sizes (log2)
system.mem_ctrls.readPktSize::6               1758143                       # Read request sizes (log2)
system.mem_ctrls.writePktSize::0                    0                       # Write request sizes (log2)
system.mem_ctrls.writePktSize::1                    0                       # Write request sizes (log2)
system.mem_ctrls.writePktSize::2                    0                       # Write request sizes (log2)
system.mem_ctrls.writePktSize::3                    0                       # Write request sizes (log2)
system.mem_ctrls.writePktSize::4                    0                       # Write request sizes (log2)
system.mem_ctrls.writePktSize::5                    0                       # Write request sizes (log2)
system.mem_ctrls.writePktSize::6               889287                       # Write request sizes (log2)
system.mem_ctrls.rdQLenPdf::0                 1750252                       # What read queue length does an incoming req see
system.mem_ctrls.rdQLenPdf::1                    5559                       # What read queue length does an incoming req see
system.mem_ctrls.rdQLenPdf::2                      33                       # What read queue length does an incoming req see
system.mem_ctrls.rdQLenPdf::3                       1                       # What read queue length does an incoming req see
system.mem_ctrls.rdQLenPdf::4                       0                       # What read queue length does an incoming req see
system.mem_ctrls.rdQLenPdf::5                       0                       # What read queue length does an incoming req see
system.mem_ctrls.rdQLenPdf::6                       0                       # What read queue length does an incoming req see
system.mem_ctrls.rdQLenPdf::7                       0                       # What read queue length does an incoming req see
system.mem_ctrls.rdQLenPdf::8                       0                       # What read queue length does an incoming req see
system.mem_ctrls.rdQLenPdf::9                       0                       # What read queue length does an incoming req see
system.mem_ctrls.rdQLenPdf::10                      0                       # What read queue length does an incoming req see
system.mem_ctrls.rdQLenPdf::11                      0                       # What read queue length does an incoming req see
system.mem_ctrls.rdQLenPdf::12                      0                       # What read queue length does an incoming req see
system.mem_ctrls.rdQLenPdf::13                      0                       # What read queue length does an incoming req see
system.mem_ctrls.rdQLenPdf::14                      0                       # What read queue length does an incoming req see
system.mem_ctrls.rdQLenPdf::15                      0                       # What read queue length does an incoming req see
system.mem_ctrls.rdQLenPdf::16                      0                       # What read queue length does an incoming req see
system.mem_ctrls.rdQLenPdf::17                      0                       # What read queue length does an incoming req see
system.mem_ctrls.rdQLenPdf::18                      0                       # What read queue length does an incoming req see
system.mem_ctrls.rdQLenPdf::19                      0                       # What read queue length does an incoming req see
system.mem_ctrls.rdQLenPdf::20                      0                       # What read queue length does an incoming req see
system.mem_ctrls.rdQLenPdf::21                      0                       # What read queue length does an incoming req see
system.mem_ctrls.rdQLenPdf::22                      0                       # What read queue length does an incoming req see
system.mem_ctrls.rdQLenPdf::23                      0                       # What read queue length does an incoming req see
system.mem_ctrls.rdQLenPdf::24                      0                       # What read queue length does an incoming req see
system.mem_ctrls.rdQLenPdf::25                      0                       # What read queue length does an incoming req see
system.mem_ctrls.rdQLenPdf::26                      0                       # What read queue length does an incoming req see
system.mem_ctrls.rdQLenPdf::27                      0                       # What read queue length does an incoming req see
system.mem_ctrls.rdQLenPdf::28                      0                       # What read queue length does an incoming req see
system.mem_ctrls.rdQLenPdf::29                      0                       # What read queue length does an incoming req see
system.mem_ctrls.rdQLenPdf::30                      0                       # What read queue length does an incoming req see
system.mem_ctrls.rdQLenPdf::31                      0                       # What read queue length does an incoming req see
system.mem_ctrls.wrQLenPdf::0                       0                       # What write queue length does an incoming req see
system.mem_ctrls.wrQLenPdf::1                       0                       # What write queue length does an incoming req see
system.mem_ctrls.wrQLenPdf::2                       0                       # What write queue length does an incoming req see
system.mem_ctrls.wrQLenPdf::3                       0                       # What write queue length does an incoming req see
system.mem_ctrls.wrQLenPdf::4                       0                       # What write queue length does an incoming req see
system.mem_ctrls.wrQLenPdf::5                       0                       # What write queue length does an incoming req see
system.mem_ctrls.wrQLenPdf::6                       0                       # What write queue length does an incoming req see
system.mem_ctrls.wrQLenPdf::7                       0                       # What write queue length does an incoming req see
system.mem_ctrls.wrQLenPdf::8                       0                       # What write queue length does an incoming req see
system.mem_ctrls.wrQLenPdf::9                       0                       # What write queue length does an incoming req see
system.mem_ctrls.wrQLenPdf::10                      0                       # What write queue length does an incoming req see
system.mem_ctrls.wrQLenPdf::11                      0                       # What write queue length does an incoming req see
system.mem_ctrls.wrQLenPdf::12                      0                       # What write queue length does an incoming req see
system.mem_ctrls.wrQLenPdf::13                      0                       # What write queue length does an incoming req see
system.mem_ctrls.wrQLenPdf::14                      0                       # What write queue length does an incoming req see
system.mem_ctrls.wrQLenPdf::15                   1477                       # What write queue length does an incoming req see
system.mem_ctrls.wrQLenPdf::16                   1617                       # What write queue length does an incoming req see
system.mem_ctrls.wrQLenPdf::17                  54788                       # What write queue length does an incoming req see
system.mem_ctrls.wrQLenPdf::18                  55361                       # What write queue length does an incoming req see
system.mem_ctrls.wrQLenPdf::19                  55396                       # What write queue length does an incoming req see
system.mem_ctrls.wrQLenPdf::20                  55477                       # What write queue length does an incoming req see
system.mem_ctrls.wrQLenPdf::21                  55433                       # What write queue length does an incoming req see
system.mem_ctrls.wrQLenPdf::22                  55452                       # What write queue length does an incoming req see
system.mem_ctrls.wrQLenPdf::23                  55462                       # What write queue length does an incoming req see
system.mem_ctrls.wrQLenPdf::24                  55441                       # What write queue length does an incoming req see
system.mem_ctrls.wrQLenPdf::25                  55429                       # What write queue length does an incoming req see
system.mem_ctrls.wrQLenPdf::26                  55446                       # What write queue length does an incoming req see
system.mem_ctrls.wrQLenPdf::27                  55424                       # What write queue length does an incoming req see
system.mem_ctrls.wrQLenPdf::28                  55416                       # What write queue length does an incoming req see
system.mem_ctrls.wrQLenPdf::29                  55409                       # What write queue length does an incoming req see
system.mem_ctrls.wrQLenPdf::30                  55404                       # What write queue length does an incoming req see
system.mem_ctrls.wrQLenPdf::31                  55400                       # What write queue length does an incoming req see
system.mem_ctrls.wrQLenPdf::32                  55391                       # What write queue length does an incoming req see
system.mem_ctrls.wrQLenPdf::33                     23                       # What write queue length does an incoming req see
system.mem_ctrls.wrQLenPdf::34                     10                       # What write queue length does an incoming req see
system.mem_ctrls.wrQLenPdf::35                      4                       # What write queue length does an incoming req see
system.mem_ctrls.wrQLenPdf::36                      4                       # What write queue length does an incoming req see
system.mem_ctrls.wrQLenPdf::37                      1                       # What write queue length does an incoming req see
system.mem_ctrls.wrQLenPdf::38                      0                       # What write queue length does an incoming req see
system.mem_ctrls.wrQLenPdf::39                      0                       # What write queue length does an incoming req see
system.mem_ctrls.wrQLenPdf::40                      0                       # What write queue length does an incoming req see
system.mem_ctrls.wrQLenPdf::41                      0                       # What write queue length does an incoming req see
system.mem_ctrls.wrQLenPdf::42                      0                       # What write queue length does an incoming req see
system.mem_ctrls.wrQLenPdf::43                      0                       # What write queue length does an incoming req see
system.mem_ctrls.wrQLenPdf::44                      0                       # What write queue length does an incoming req see
system.mem_ctrls.wrQLenPdf::45                      0                       # What write queue length does an incoming req see
system.mem_ctrls.wrQLenPdf::46                      0                       # What write queue length does an incoming req see
system.mem_ctrls.wrQLenPdf::47                      0                       # What write queue length does an incoming req see
system.mem_ctrls.wrQLenPdf::48                      0                       # What write queue length does an incoming req see
system.mem_ctrls.wrQLenPdf::49                      0                       # What write queue length does an incoming req see
system.mem_ctrls.wrQLenPdf::50                      0                       # What write queue length does an incoming req see
system.mem_ctrls.wrQLenPdf::51                      0                       # What write queue length does an incoming req see
system.mem_ctrls.wrQLenPdf::52                      0                       # What write queue length does an incoming req see
system.mem_ctrls.wrQLenPdf::53                      0                       # What write queue length does an incoming req see
system.mem_ctrls.wrQLenPdf::54                      0                       # What write queue length does an incoming req see
system.mem_ctrls.wrQLenPdf::55                      0                       # What write queue length does an incoming req see
system.mem_ctrls.wrQLenPdf::56                      0                       # What write queue length does an incoming req see
system.mem_ctrls.wrQLenPdf::57                      0                       # What write queue length does an incoming req see
system.mem_ctrls.wrQLenPdf::58                      0                       # What write queue length does an incoming req see
system.mem_ctrls.wrQLenPdf::59                      0                       # What write queue length does an incoming req see
system.mem_ctrls.wrQLenPdf::60                      0                       # What write queue length does an incoming req see
system.mem_ctrls.wrQLenPdf::61                      0                       # What write queue length does an incoming req see
system.mem_ctrls.wrQLenPdf::62                      0                       # What write queue length does an incoming req see
system.mem_ctrls.wrQLenPdf::63                      0                       # What write queue length does an incoming req see
system.mem_ctrls.bytesPerActivate::samples      1527350                       # Bytes accessed per row activation
system.mem_ctrls.bytesPerActivate::mean    110.837474                       # Bytes accessed per row activation
system.mem_ctrls.bytesPerActivate::gmean    86.518491                       # Bytes accessed per row activation
system.mem_ctrls.bytesPerActivate::stdev   131.958451                       # Bytes accessed per row activation
system.mem_ctrls.bytesPerActivate::0-127      1084826     71.03%     71.03% # Bytes accessed per row activation
system.mem_ctrls.bytesPerActivate::128-255       340435     22.29%     93.32% # Bytes accessed per row activation
system.mem_ctrls.bytesPerActivate::256-383        41203      2.70%     96.01% # Bytes accessed per row activation
system.mem_ctrls.bytesPerActivate::384-511        17710      1.16%     97.17% # Bytes accessed per row activation
system.mem_ctrls.bytesPerActivate::512-639        11602      0.76%     97.93% # Bytes accessed per row activation
system.mem_ctrls.bytesPerActivate::640-767         9422      0.62%     98.55% # Bytes accessed per row activation
system.mem_ctrls.bytesPerActivate::768-895         5538      0.36%     98.91% # Bytes accessed per row activation
system.mem_ctrls.bytesPerActivate::896-1023         3718      0.24%     99.16% # Bytes accessed per row activation
system.mem_ctrls.bytesPerActivate::1024-1151        12896      0.84%    100.00% # Bytes accessed per row activation
system.mem_ctrls.bytesPerActivate::total      1527350                       # Bytes accessed per row activation
system.mem_ctrls.rdPerTurnAround::samples        55375                       # Reads before turning the bus around for writes
system.mem_ctrls.rdPerTurnAround::mean      31.710032                       # Reads before turning the bus around for writes
system.mem_ctrls.rdPerTurnAround::gmean     29.626068                       # Reads before turning the bus around for writes
system.mem_ctrls.rdPerTurnAround::stdev     13.338001                       # Reads before turning the bus around for writes
system.mem_ctrls.rdPerTurnAround::0-31          30171     54.48%     54.48% # Reads before turning the bus around for writes
system.mem_ctrls.rdPerTurnAround::32-63         24354     43.98%     98.47% # Reads before turning the bus around for writes
system.mem_ctrls.rdPerTurnAround::64-95           761      1.37%     99.84% # Reads before turning the bus around for writes
system.mem_ctrls.rdPerTurnAround::96-127           49      0.09%     99.93% # Reads before turning the bus around for writes
system.mem_ctrls.rdPerTurnAround::128-159           12      0.02%     99.95% # Reads before turning the bus around for writes
system.mem_ctrls.rdPerTurnAround::160-191            6      0.01%     99.96% # Reads before turning the bus around for writes
system.mem_ctrls.rdPerTurnAround::192-223            7      0.01%     99.97% # Reads before turning the bus around for writes
system.mem_ctrls.rdPerTurnAround::224-255            2      0.00%     99.98% # Reads before turning the bus around for writes
system.mem_ctrls.rdPerTurnAround::256-287            3      0.01%     99.98% # Reads before turning the bus around for writes
system.mem_ctrls.rdPerTurnAround::288-319            2      0.00%     99.99% # Reads before turning the bus around for writes
system.mem_ctrls.rdPerTurnAround::320-351            2      0.00%     99.99% # Reads before turning the bus around for writes
system.mem_ctrls.rdPerTurnAround::352-383            3      0.01%     99.99% # Reads before turning the bus around for writes
system.mem_ctrls.rdPerTurnAround::416-447            1      0.00%    100.00% # Reads before turning the bus around for writes
system.mem_ctrls.rdPerTurnAround::608-639            1      0.00%    100.00% # Reads before turning the bus around for writes
system.mem_ctrls.rdPerTurnAround::768-799            1      0.00%    100.00% # Reads before turning the bus around for writes
system.mem_ctrls.rdPerTurnAround::total         55375                       # Reads before turning the bus around for writes
system.mem_ctrls.wrPerTurnAround::samples        55375                       # Writes before turning the bus around for reads
system.mem_ctrls.wrPerTurnAround::mean      16.059124                       # Writes before turning the bus around for reads
system.mem_ctrls.wrPerTurnAround::gmean     16.055742                       # Writes before turning the bus around for reads
system.mem_ctrls.wrPerTurnAround::stdev      0.343309                       # Writes before turning the bus around for reads
system.mem_ctrls.wrPerTurnAround::16            53703     96.98%     96.98% # Writes before turning the bus around for reads
system.mem_ctrls.wrPerTurnAround::17              134      0.24%     97.22% # Writes before turning the bus around for reads
system.mem_ctrls.wrPerTurnAround::18             1507      2.72%     99.94% # Writes before turning the bus around for reads
system.mem_ctrls.wrPerTurnAround::19               15      0.03%     99.97% # Writes before turning the bus around for reads
system.mem_ctrls.wrPerTurnAround::20                3      0.01%     99.98% # Writes before turning the bus around for reads
system.mem_ctrls.wrPerTurnAround::21               11      0.02%    100.00% # Writes before turning the bus around for reads
system.mem_ctrls.wrPerTurnAround::22                1      0.00%    100.00% # Writes before turning the bus around for reads
system.mem_ctrls.wrPerTurnAround::24                1      0.00%    100.00% # Writes before turning the bus around for reads
system.mem_ctrls.wrPerTurnAround::total         55375                       # Writes before turning the bus around for reads
system.mem_ctrls.totQLat                  30158335610                       # Total ticks spent queuing
system.mem_ctrls.totMemAccLat             63080429360                       # Total ticks spent from burst creation until serviced by the DRAM
system.mem_ctrls.totBusLat                 8779225000                       # Total ticks spent in databus transfers
system.mem_ctrls.avgQLat                     17175.97                       # Average queueing delay per DRAM burst
system.mem_ctrls.avgBusLat                    5000.00                       # Average bus latency per DRAM burst
system.mem_ctrls.avgMemAccLat                35925.97                       # Average memory access latency per DRAM burst
system.mem_ctrls.avgRdBW                        27.32                       # Average DRAM read bandwidth in MiByte/s
system.mem_ctrls.avgWrBW                        13.84                       # Average achieved write bandwidth in MiByte/s
system.mem_ctrls.avgRdBWSys                     27.36                       # Average system read bandwidth in MiByte/s
system.mem_ctrls.avgWrBWSys                     13.84                       # Average system write bandwidth in MiByte/s
system.mem_ctrls.peakBW                      12800.00                       # Theoretical peak bandwidth in MiByte/s
system.mem_ctrls.busUtil                         0.32                       # Data bus utilization in percentage
system.mem_ctrls.busUtilRead                     0.21                       # Data bus utilization in percentage for reads
system.mem_ctrls.busUtilWrite                    0.11                       # Data bus utilization in percentage for writes
system.mem_ctrls.avgRdQLen                       1.00                       # Average read queue length when enqueuing
system.mem_ctrls.avgWrQLen                      25.45                       # Average write queue length when enqueuing
system.mem_ctrls.readRowHits                   861295                       # Number of row buffer hits during reads
system.mem_ctrls.writeRowHits                  256472                       # Number of row buffer hits during writes
system.mem_ctrls.readRowHitRate                 49.05                       # Row buffer hit rate for reads
system.mem_ctrls.writeRowHitRate                28.84                       # Row buffer hit rate for writes
system.mem_ctrls.avgGap                    1553636.17                       # Average gap between requests
system.mem_ctrls.pageHitRate                    42.26                       # Row buffer hit rate, read and write combined
system.mem_ctrls_0.actEnergy               5772740400                       # Energy for activate commands per rank (pJ)
system.mem_ctrls_0.preEnergy               3149808750                       # Energy for precharge commands per rank (pJ)
system.mem_ctrls_0.readEnergy              6906837600                       # Energy for read commands per rank (pJ)
system.mem_ctrls_0.writeEnergy             2897551440                       # Energy for write commands per rank (pJ)
system.mem_ctrls_0.refreshEnergy         268903134240                       # Energy for refresh commands per rank (pJ)
system.mem_ctrls_0.actBackEnergy         511859087145                       # Energy for active background per rank (pJ)
system.mem_ctrls_0.preBackEnergy         2021207456250                       # Energy for precharge background per rank (pJ)
system.mem_ctrls_0.totalEnergy           2820696615825                       # Total energy per rank (pJ)
system.mem_ctrls_0.averagePower            685.132139                       # Core power per rank (mW)
system.mem_ctrls_0.memoryStateTime::IDLE 3358112205500                       # Time in different power states
system.mem_ctrls_0.memoryStateTime::REF  137346820000                       # Time in different power states
system.mem_ctrls_0.memoryStateTime::PRE_PDN            0                       # Time in different power states
system.mem_ctrls_0.memoryStateTime::ACT  617684057500                       # Time in different power states
system.mem_ctrls_0.memoryStateTime::ACT_PDN            0                       # Time in different power states
system.mem_ctrls_1.actEnergy               5806064880                       # Energy for activate commands per rank (pJ)
system.mem_ctrls_1.preEnergy               3167991750                       # Energy for precharge commands per rank (pJ)
system.mem_ctrls_1.readEnergy              6910573800                       # Energy for read commands per rank (pJ)
system.mem_ctrls_1.writeEnergy             2866771440                       # Energy for write commands per rank (pJ)
system.mem_ctrls_1.refreshEnergy         268903134240                       # Energy for refresh commands per rank (pJ)
system.mem_ctrls_1.actBackEnergy         513879964290                       # Energy for active background per rank (pJ)
system.mem_ctrls_1.preBackEnergy         2019434757000                       # Energy for precharge background per rank (pJ)
system.mem_ctrls_1.totalEnergy           2820969257400                       # Total energy per rank (pJ)
system.mem_ctrls_1.averagePower            685.198362                       # Core power per rank (mW)
system.mem_ctrls_1.memoryStateTime::IDLE 3355278684000                       # Time in different power states
system.mem_ctrls_1.memoryStateTime::REF  137346820000                       # Time in different power states
system.mem_ctrls_1.memoryStateTime::PRE_PDN            0                       # Time in different power states
system.mem_ctrls_1.memoryStateTime::ACT  620519533000                       # Time in different power states
system.mem_ctrls_1.memoryStateTime::ACT_PDN            0                       # Time in different power states
system.cpu_voltage_domain.voltage                   1                       # Voltage in Volts
system.cpu_clk_domain.clock                       500                       # Clock period in ticks
system.cpu0.apic_clk_domain.clock                8000                       # Clock period in ticks
system.cpu0.numCycles                      8231431015                       # number of cpu cycles simulated
system.cpu0.numWorkItemsStarted                     0                       # number of work items this cpu started
system.cpu0.numWorkItemsCompleted                   0                       # number of work items this cpu completed
system.cpu0.kern.inst.arm                           0                       # number of arm instructions executed
system.cpu0.kern.inst.quiesce                       0                       # number of quiesce instructions executed
system.cpu0.committedInsts                    3363617                       # Number of instructions committed
system.cpu0.committedOps                      7312423                       # Number of ops (including micro ops) committed
system.cpu0.num_int_alu_accesses              7154988                       # Number of integer alu accesses
system.cpu0.num_fp_alu_accesses                    39                       # Number of float alu accesses
system.cpu0.num_func_calls                     214960                       # number of times a function call or return occured
system.cpu0.num_conditional_control_insts       487417                       # number of instructions that are conditional controls
system.cpu0.num_int_insts                     7154988                       # number of integer instructions
system.cpu0.num_fp_insts                           39                       # number of float instructions
system.cpu0.num_int_register_reads           14537000                       # number of times the integer registers were read
system.cpu0.num_int_register_writes           5925360                       # number of times the integer registers were written
system.cpu0.num_fp_register_reads                  63                       # number of times the floating registers were read
system.cpu0.num_fp_register_writes                 31                       # number of times the floating registers were written
system.cpu0.num_cc_register_reads             4052624                       # number of times the CC registers were read
system.cpu0.num_cc_register_writes            2192293                       # number of times the CC registers were written
system.cpu0.num_mem_refs                      1724760                       # number of memory refs
system.cpu0.num_load_insts                    1063384                       # Number of load instructions
system.cpu0.num_store_insts                    661376                       # Number of store instructions
system.cpu0.num_idle_cycles              8213050582.404661                       # Number of idle cycles
system.cpu0.num_busy_cycles              18380432.595339                       # Number of busy cycles
system.cpu0.not_idle_fraction                0.002233                       # Percentage of non-idle cycles
system.cpu0.idle_fraction                    0.997767                       # Percentage of idle cycles
system.cpu0.Branches                           767771                       # Number of branches fetched
system.cpu0.op_class::No_OpClass               126967      1.74%      1.74% # Class of executed instruction
system.cpu0.op_class::IntAlu                  5404122     73.90%     75.64% # Class of executed instruction
system.cpu0.op_class::IntMult                   13972      0.19%     75.83% # Class of executed instruction
system.cpu0.op_class::IntDiv                    42594      0.58%     76.41% # Class of executed instruction
system.cpu0.op_class::FloatAdd                     30      0.00%     76.41% # Class of executed instruction
system.cpu0.op_class::FloatCmp                      0      0.00%     76.41% # Class of executed instruction
system.cpu0.op_class::FloatCvt                      0      0.00%     76.41% # Class of executed instruction
system.cpu0.op_class::FloatMult                     0      0.00%     76.41% # Class of executed instruction
system.cpu0.op_class::FloatDiv                      0      0.00%     76.41% # Class of executed instruction
system.cpu0.op_class::FloatSqrt                     0      0.00%     76.41% # Class of executed instruction
system.cpu0.op_class::SimdAdd                       0      0.00%     76.41% # Class of executed instruction
system.cpu0.op_class::SimdAddAcc                    0      0.00%     76.41% # Class of executed instruction
system.cpu0.op_class::SimdAlu                       0      0.00%     76.41% # Class of executed instruction
system.cpu0.op_class::SimdCmp                       0      0.00%     76.41% # Class of executed instruction
system.cpu0.op_class::SimdCvt                       0      0.00%     76.41% # Class of executed instruction
system.cpu0.op_class::SimdMisc                      0      0.00%     76.41% # Class of executed instruction
system.cpu0.op_class::SimdMult                      0      0.00%     76.41% # Class of executed instruction
system.cpu0.op_class::SimdMultAcc                   0      0.00%     76.41% # Class of executed instruction
system.cpu0.op_class::SimdShift                     0      0.00%     76.41% # Class of executed instruction
system.cpu0.op_class::SimdShiftAcc                  0      0.00%     76.41% # Class of executed instruction
system.cpu0.op_class::SimdSqrt                      0      0.00%     76.41% # Class of executed instruction
system.cpu0.op_class::SimdFloatAdd                  0      0.00%     76.41% # Class of executed instruction
system.cpu0.op_class::SimdFloatAlu                  0      0.00%     76.41% # Class of executed instruction
system.cpu0.op_class::SimdFloatCmp                  0      0.00%     76.41% # Class of executed instruction
system.cpu0.op_class::SimdFloatCvt                  0      0.00%     76.41% # Class of executed instruction
system.cpu0.op_class::SimdFloatDiv                  0      0.00%     76.41% # Class of executed instruction
system.cpu0.op_class::SimdFloatMisc                 0      0.00%     76.41% # Class of executed instruction
system.cpu0.op_class::SimdFloatMult                 0      0.00%     76.41% # Class of executed instruction
system.cpu0.op_class::SimdFloatMultAcc              0      0.00%     76.41% # Class of executed instruction
system.cpu0.op_class::SimdFloatSqrt                 0      0.00%     76.41% # Class of executed instruction
system.cpu0.op_class::MemRead                 1063384     14.54%     90.96% # Class of executed instruction
system.cpu0.op_class::MemWrite                 661376      9.04%    100.00% # Class of executed instruction
system.cpu0.op_class::IprAccess                     0      0.00%    100.00% # Class of executed instruction
system.cpu0.op_class::InstPrefetch                  0      0.00%    100.00% # Class of executed instruction
system.cpu0.op_class::total                   7312445                       # Class of executed instruction
system.cpu1.apic_clk_domain.clock                8000                       # Clock period in ticks
system.cpu1.numCycles                      8227229166                       # number of cpu cycles simulated
system.cpu1.numWorkItemsStarted                     0                       # number of work items this cpu started
system.cpu1.numWorkItemsCompleted                   0                       # number of work items this cpu completed
system.cpu1.kern.inst.arm                           0                       # number of arm instructions executed
system.cpu1.kern.inst.quiesce                       0                       # number of quiesce instructions executed
system.cpu1.committedInsts                 2239591787                       # Number of instructions committed
system.cpu1.committedOps                   3132145508                       # Number of ops (including micro ops) committed
system.cpu1.num_int_alu_accesses           1365186780                       # Number of integer alu accesses
system.cpu1.num_fp_alu_accesses            2127680380                       # Number of float alu accesses
system.cpu1.num_func_calls                    4842326                       # number of times a function call or return occured
system.cpu1.num_conditional_control_insts    125357234                       # number of instructions that are conditional controls
system.cpu1.num_int_insts                  1365186780                       # number of integer instructions
system.cpu1.num_fp_insts                   2127680380                       # number of float instructions
system.cpu1.num_int_register_reads         2745899841                       # number of times the integer registers were read
system.cpu1.num_int_register_writes         828628881                       # number of times the integer registers were written
system.cpu1.num_fp_register_reads          4601234200                       # number of times the floating registers were read
system.cpu1.num_fp_register_writes         2077617928                       # number of times the floating registers were written
system.cpu1.num_cc_register_reads           735994439                       # number of times the CC registers were read
system.cpu1.num_cc_register_writes          430203078                       # number of times the CC registers were written
system.cpu1.num_mem_refs                    408386363                       # number of memory refs
system.cpu1.num_load_insts                  353645608                       # Number of load instructions
system.cpu1.num_store_insts                  54740755                       # Number of store instructions
system.cpu1.num_idle_cycles              5541706.994458                       # Number of idle cycles
system.cpu1.num_busy_cycles              8221687459.005542                       # Number of busy cycles
system.cpu1.not_idle_fraction                0.999326                       # Percentage of non-idle cycles
system.cpu1.idle_fraction                    0.000674                       # Percentage of idle cycles
system.cpu1.Branches                        163329881                       # Number of branches fetched
system.cpu1.op_class::No_OpClass              2282763      0.07%      0.07% # Class of executed instruction
system.cpu1.op_class::IntAlu               1676807767     53.54%     53.61% # Class of executed instruction
system.cpu1.op_class::IntMult                   82488      0.00%     53.61% # Class of executed instruction
system.cpu1.op_class::IntDiv                    99049      0.00%     53.61% # Class of executed instruction
system.cpu1.op_class::FloatAdd             1044495741     33.35%     86.96% # Class of executed instruction
system.cpu1.op_class::FloatCmp                      0      0.00%     86.96% # Class of executed instruction
system.cpu1.op_class::FloatCvt                      0      0.00%     86.96% # Class of executed instruction
system.cpu1.op_class::FloatMult                     0      0.00%     86.96% # Class of executed instruction
system.cpu1.op_class::FloatDiv                      0      0.00%     86.96% # Class of executed instruction
system.cpu1.op_class::FloatSqrt                     0      0.00%     86.96% # Class of executed instruction
system.cpu1.op_class::SimdAdd                       0      0.00%     86.96% # Class of executed instruction
system.cpu1.op_class::SimdAddAcc                    0      0.00%     86.96% # Class of executed instruction
system.cpu1.op_class::SimdAlu                       0      0.00%     86.96% # Class of executed instruction
system.cpu1.op_class::SimdCmp                       0      0.00%     86.96% # Class of executed instruction
system.cpu1.op_class::SimdCvt                       0      0.00%     86.96% # Class of executed instruction
system.cpu1.op_class::SimdMisc                      0      0.00%     86.96% # Class of executed instruction
system.cpu1.op_class::SimdMult                      0      0.00%     86.96% # Class of executed instruction
system.cpu1.op_class::SimdMultAcc                   0      0.00%     86.96% # Class of executed instruction
system.cpu1.op_class::SimdShift                     0      0.00%     86.96% # Class of executed instruction
system.cpu1.op_class::SimdShiftAcc                  0      0.00%     86.96% # Class of executed instruction
system.cpu1.op_class::SimdSqrt                      0      0.00%     86.96% # Class of executed instruction
system.cpu1.op_class::SimdFloatAdd                  0      0.00%     86.96% # Class of executed instruction
system.cpu1.op_class::SimdFloatAlu                  0      0.00%     86.96% # Class of executed instruction
system.cpu1.op_class::SimdFloatCmp                  0      0.00%     86.96% # Class of executed instruction
system.cpu1.op_class::SimdFloatCvt                  0      0.00%     86.96% # Class of executed instruction
system.cpu1.op_class::SimdFloatDiv                  0      0.00%     86.96% # Class of executed instruction
system.cpu1.op_class::SimdFloatMisc                 0      0.00%     86.96% # Class of executed instruction
system.cpu1.op_class::SimdFloatMult                 0      0.00%     86.96% # Class of executed instruction
system.cpu1.op_class::SimdFloatMultAcc              0      0.00%     86.96% # Class of executed instruction
system.cpu1.op_class::SimdFloatSqrt                 0      0.00%     86.96% # Class of executed instruction
system.cpu1.op_class::MemRead               353645608     11.29%     98.25% # Class of executed instruction
system.cpu1.op_class::MemWrite               54740755      1.75%    100.00% # Class of executed instruction
system.cpu1.op_class::IprAccess                     0      0.00%    100.00% # Class of executed instruction
system.cpu1.op_class::InstPrefetch                  0      0.00%    100.00% # Class of executed instruction
system.cpu1.op_class::total                3132154171                       # Class of executed instruction
system.cpu2.apic_clk_domain.clock                8000                       # Clock period in ticks
system.cpu2.numCycles                      8224270027                       # number of cpu cycles simulated
system.cpu2.numWorkItemsStarted                     0                       # number of work items this cpu started
system.cpu2.numWorkItemsCompleted                   0                       # number of work items this cpu completed
system.cpu2.kern.inst.arm                           0                       # number of arm instructions executed
system.cpu2.kern.inst.quiesce                       0                       # number of quiesce instructions executed
system.cpu2.committedInsts                    2874474                       # Number of instructions committed
system.cpu2.committedOps                      6211425                       # Number of ops (including micro ops) committed
system.cpu2.num_int_alu_accesses              6073798                       # Number of integer alu accesses
system.cpu2.num_fp_alu_accesses                     0                       # Number of float alu accesses
system.cpu2.num_func_calls                     171288                       # number of times a function call or return occured
system.cpu2.num_conditional_control_insts       436592                       # number of instructions that are conditional controls
system.cpu2.num_int_insts                     6073798                       # number of integer instructions
system.cpu2.num_fp_insts                            0                       # number of float instructions
system.cpu2.num_int_register_reads           12344623                       # number of times the integer registers were read
system.cpu2.num_int_register_writes           5042953                       # number of times the integer registers were written
system.cpu2.num_fp_register_reads                   0                       # number of times the floating registers were read
system.cpu2.num_fp_register_writes                  0                       # number of times the floating registers were written
system.cpu2.num_cc_register_reads             3499297                       # number of times the CC registers were read
system.cpu2.num_cc_register_writes            1834746                       # number of times the CC registers were written
system.cpu2.num_mem_refs                      1478834                       # number of memory refs
system.cpu2.num_load_insts                     919730                       # Number of load instructions
system.cpu2.num_store_insts                    559104                       # Number of store instructions
system.cpu2.num_idle_cycles              8208299955.535338                       # Number of idle cycles
system.cpu2.num_busy_cycles              15970071.464662                       # Number of busy cycles
system.cpu2.not_idle_fraction                0.001942                       # Percentage of non-idle cycles
system.cpu2.idle_fraction                    0.998058                       # Percentage of idle cycles
system.cpu2.Branches                           663701                       # Number of branches fetched
system.cpu2.op_class::No_OpClass               117664      1.89%      1.89% # Class of executed instruction
system.cpu2.op_class::IntAlu                  4560356     73.42%     75.31% # Class of executed instruction
system.cpu2.op_class::IntMult                   12651      0.20%     75.52% # Class of executed instruction
system.cpu2.op_class::IntDiv                    41923      0.67%     76.19% # Class of executed instruction
system.cpu2.op_class::FloatAdd                      0      0.00%     76.19% # Class of executed instruction
system.cpu2.op_class::FloatCmp                      0      0.00%     76.19% # Class of executed instruction
system.cpu2.op_class::FloatCvt                      0      0.00%     76.19% # Class of executed instruction
system.cpu2.op_class::FloatMult                     0      0.00%     76.19% # Class of executed instruction
system.cpu2.op_class::FloatDiv                      0      0.00%     76.19% # Class of executed instruction
system.cpu2.op_class::FloatSqrt                     0      0.00%     76.19% # Class of executed instruction
system.cpu2.op_class::SimdAdd                       0      0.00%     76.19% # Class of executed instruction
system.cpu2.op_class::SimdAddAcc                    0      0.00%     76.19% # Class of executed instruction
system.cpu2.op_class::SimdAlu                       0      0.00%     76.19% # Class of executed instruction
system.cpu2.op_class::SimdCmp                       0      0.00%     76.19% # Class of executed instruction
system.cpu2.op_class::SimdCvt                       0      0.00%     76.19% # Class of executed instruction
system.cpu2.op_class::SimdMisc                      0      0.00%     76.19% # Class of executed instruction
system.cpu2.op_class::SimdMult                      0      0.00%     76.19% # Class of executed instruction
system.cpu2.op_class::SimdMultAcc                   0      0.00%     76.19% # Class of executed instruction
system.cpu2.op_class::SimdShift                     0      0.00%     76.19% # Class of executed instruction
system.cpu2.op_class::SimdShiftAcc                  0      0.00%     76.19% # Class of executed instruction
system.cpu2.op_class::SimdSqrt                      0      0.00%     76.19% # Class of executed instruction
system.cpu2.op_class::SimdFloatAdd                  0      0.00%     76.19% # Class of executed instruction
system.cpu2.op_class::SimdFloatAlu                  0      0.00%     76.19% # Class of executed instruction
system.cpu2.op_class::SimdFloatCmp                  0      0.00%     76.19% # Class of executed instruction
system.cpu2.op_class::SimdFloatCvt                  0      0.00%     76.19% # Class of executed instruction
system.cpu2.op_class::SimdFloatDiv                  0      0.00%     76.19% # Class of executed instruction
system.cpu2.op_class::SimdFloatMisc                 0      0.00%     76.19% # Class of executed instruction
system.cpu2.op_class::SimdFloatMult                 0      0.00%     76.19% # Class of executed instruction
system.cpu2.op_class::SimdFloatMultAcc              0      0.00%     76.19% # Class of executed instruction
system.cpu2.op_class::SimdFloatSqrt                 0      0.00%     76.19% # Class of executed instruction
system.cpu2.op_class::MemRead                  919730     14.81%     91.00% # Class of executed instruction
system.cpu2.op_class::MemWrite                 559104      9.00%    100.00% # Class of executed instruction
system.cpu2.op_class::IprAccess                     0      0.00%    100.00% # Class of executed instruction
system.cpu2.op_class::InstPrefetch                  0      0.00%    100.00% # Class of executed instruction
system.cpu2.op_class::total                   6211428                       # Class of executed instruction
system.cpu3.apic_clk_domain.clock                8000                       # Clock period in ticks
system.cpu3.numCycles                      8226106520                       # number of cpu cycles simulated
system.cpu3.numWorkItemsStarted                     0                       # number of work items this cpu started
system.cpu3.numWorkItemsCompleted                   0                       # number of work items this cpu completed
system.cpu3.kern.inst.arm                           0                       # number of arm instructions executed
system.cpu3.kern.inst.quiesce                       0                       # number of quiesce instructions executed
system.cpu3.committedInsts                    3878405                       # Number of instructions committed
system.cpu3.committedOps                      8096696                       # Number of ops (including micro ops) committed
system.cpu3.num_int_alu_accesses              7932129                       # Number of integer alu accesses
system.cpu3.num_fp_alu_accesses                  1814                       # Number of float alu accesses
system.cpu3.num_func_calls                     209268                       # number of times a function call or return occured
system.cpu3.num_conditional_control_insts       604575                       # number of instructions that are conditional controls
system.cpu3.num_int_insts                     7932129                       # number of integer instructions
system.cpu3.num_fp_insts                         1814                       # number of float instructions
system.cpu3.num_int_register_reads           16082286                       # number of times the integer registers were read
system.cpu3.num_int_register_writes           6548691                       # number of times the integer registers were written
system.cpu3.num_fp_register_reads                3048                       # number of times the floating registers were read
system.cpu3.num_fp_register_writes               1440                       # number of times the floating registers were written
system.cpu3.num_cc_register_reads             4668624                       # number of times the CC registers were read
system.cpu3.num_cc_register_writes            2509539                       # number of times the CC registers were written
system.cpu3.num_mem_refs                      1894990                       # number of memory refs
system.cpu3.num_load_insts                    1182541                       # Number of load instructions
system.cpu3.num_store_insts                    712449                       # Number of store instructions
system.cpu3.num_idle_cycles              8205184100.636487                       # Number of idle cycles
system.cpu3.num_busy_cycles              20922419.363513                       # Number of busy cycles
system.cpu3.not_idle_fraction                0.002543                       # Percentage of non-idle cycles
system.cpu3.idle_fraction                    0.997457                       # Percentage of idle cycles
system.cpu3.Branches                           880382                       # Number of branches fetched
system.cpu3.op_class::No_OpClass               128587      1.59%      1.59% # Class of executed instruction
system.cpu3.op_class::IntAlu                  6012209     74.25%     75.84% # Class of executed instruction
system.cpu3.op_class::IntMult                   13924      0.17%     76.01% # Class of executed instruction
system.cpu3.op_class::IntDiv                    45708      0.56%     76.58% # Class of executed instruction
system.cpu3.op_class::FloatAdd                   1368      0.02%     76.60% # Class of executed instruction
system.cpu3.op_class::FloatCmp                      0      0.00%     76.60% # Class of executed instruction
system.cpu3.op_class::FloatCvt                      0      0.00%     76.60% # Class of executed instruction
system.cpu3.op_class::FloatMult                     0      0.00%     76.60% # Class of executed instruction
system.cpu3.op_class::FloatDiv                      0      0.00%     76.60% # Class of executed instruction
system.cpu3.op_class::FloatSqrt                     0      0.00%     76.60% # Class of executed instruction
system.cpu3.op_class::SimdAdd                       0      0.00%     76.60% # Class of executed instruction
system.cpu3.op_class::SimdAddAcc                    0      0.00%     76.60% # Class of executed instruction
system.cpu3.op_class::SimdAlu                       0      0.00%     76.60% # Class of executed instruction
system.cpu3.op_class::SimdCmp                       0      0.00%     76.60% # Class of executed instruction
system.cpu3.op_class::SimdCvt                       0      0.00%     76.60% # Class of executed instruction
system.cpu3.op_class::SimdMisc                      0      0.00%     76.60% # Class of executed instruction
system.cpu3.op_class::SimdMult                      0      0.00%     76.60% # Class of executed instruction
system.cpu3.op_class::SimdMultAcc                   0      0.00%     76.60% # Class of executed instruction
system.cpu3.op_class::SimdShift                     0      0.00%     76.60% # Class of executed instruction
system.cpu3.op_class::SimdShiftAcc                  0      0.00%     76.60% # Class of executed instruction
system.cpu3.op_class::SimdSqrt                      0      0.00%     76.60% # Class of executed instruction
system.cpu3.op_class::SimdFloatAdd                  0      0.00%     76.60% # Class of executed instruction
system.cpu3.op_class::SimdFloatAlu                  0      0.00%     76.60% # Class of executed instruction
system.cpu3.op_class::SimdFloatCmp                  0      0.00%     76.60% # Class of executed instruction
system.cpu3.op_class::SimdFloatCvt                  0      0.00%     76.60% # Class of executed instruction
system.cpu3.op_class::SimdFloatDiv                  0      0.00%     76.60% # Class of executed instruction
system.cpu3.op_class::SimdFloatMisc                 0      0.00%     76.60% # Class of executed instruction
system.cpu3.op_class::SimdFloatMult                 0      0.00%     76.60% # Class of executed instruction
system.cpu3.op_class::SimdFloatMultAcc              0      0.00%     76.60% # Class of executed instruction
system.cpu3.op_class::SimdFloatSqrt                 0      0.00%     76.60% # Class of executed instruction
system.cpu3.op_class::MemRead                 1182541     14.61%     91.20% # Class of executed instruction
system.cpu3.op_class::MemWrite                 712449      8.80%    100.00% # Class of executed instruction
system.cpu3.op_class::IprAccess                     0      0.00%    100.00% # Class of executed instruction
system.cpu3.op_class::InstPrefetch                  0      0.00%    100.00% # Class of executed instruction
system.cpu3.op_class::total                   8096786                       # Class of executed instruction
system.iobus.trans_dist::ReadReq                  200                       # Transaction distribution
system.iobus.trans_dist::ReadResp                 200                       # Transaction distribution
system.iobus.trans_dist::WriteReq                4254                       # Transaction distribution
system.iobus.trans_dist::WriteResp               4254                       # Transaction distribution
system.iobus.trans_dist::MessageReq                20                       # Transaction distribution
system.iobus.trans_dist::MessageResp               20                       # Transaction distribution
system.iobus.pkt_count_system.pc.south_bridge.io_apic.int_master::system.ruby.l0_cntrl0.sequencer.pio-slave-port            4                       # Packet count per connected master and slave (bytes)
system.iobus.pkt_count_system.pc.south_bridge.io_apic.int_master::system.ruby.l0_cntrl1.sequencer.pio-slave-port            6                       # Packet count per connected master and slave (bytes)
system.iobus.pkt_count_system.pc.south_bridge.io_apic.int_master::system.ruby.l0_cntrl2.sequencer.pio-slave-port            6                       # Packet count per connected master and slave (bytes)
system.iobus.pkt_count_system.pc.south_bridge.io_apic.int_master::system.ruby.l0_cntrl3.sequencer.pio-slave-port            6                       # Packet count per connected master and slave (bytes)
system.iobus.pkt_count_system.pc.south_bridge.io_apic.int_master::total           22                       # Packet count per connected master and slave (bytes)
system.iobus.pkt_count_system.ruby.l0_cntrl0.sequencer.mem-master-port::system.pc.south_bridge.ide.pio           34                       # Packet count per connected master and slave (bytes)
system.iobus.pkt_count_system.ruby.l0_cntrl0.sequencer.mem-master-port::system.pc.south_bridge.io_apic.pio           16                       # Packet count per connected master and slave (bytes)
system.iobus.pkt_count_system.ruby.l0_cntrl0.sequencer.mem-master-port::system.ruby.l0_cntrl0.sequencer.pio-slave-port         2072                       # Packet count per connected master and slave (bytes)
system.iobus.pkt_count_system.ruby.l0_cntrl0.sequencer.mem-master-port::system.ruby.l0_cntrl1.sequencer.pio-slave-port            2                       # Packet count per connected master and slave (bytes)
system.iobus.pkt_count_system.ruby.l0_cntrl0.sequencer.mem-master-port::total         2124                       # Packet count per connected master and slave (bytes)
system.iobus.pkt_count_system.ruby.l0_cntrl1.sequencer.mem-master-port::system.pc.south_bridge.ide.pio           46                       # Packet count per connected master and slave (bytes)
system.iobus.pkt_count_system.ruby.l0_cntrl1.sequencer.mem-master-port::system.pc.south_bridge.io_apic.pio           14                       # Packet count per connected master and slave (bytes)
system.iobus.pkt_count_system.ruby.l0_cntrl1.sequencer.mem-master-port::system.pc.com_1.pio          254                       # Packet count per connected master and slave (bytes)
system.iobus.pkt_count_system.ruby.l0_cntrl1.sequencer.mem-master-port::system.ruby.l0_cntrl0.sequencer.pio-slave-port            2                       # Packet count per connected master and slave (bytes)
system.iobus.pkt_count_system.ruby.l0_cntrl1.sequencer.mem-master-port::system.ruby.l0_cntrl1.sequencer.pio-slave-port         2090                       # Packet count per connected master and slave (bytes)
system.iobus.pkt_count_system.ruby.l0_cntrl1.sequencer.mem-master-port::system.ruby.l0_cntrl2.sequencer.pio-slave-port            6                       # Packet count per connected master and slave (bytes)
system.iobus.pkt_count_system.ruby.l0_cntrl1.sequencer.mem-master-port::total         2412                       # Packet count per connected master and slave (bytes)
system.iobus.pkt_count_system.ruby.l0_cntrl2.sequencer.mem-master-port::system.pc.south_bridge.ide.pio           12                       # Packet count per connected master and slave (bytes)
system.iobus.pkt_count_system.ruby.l0_cntrl2.sequencer.mem-master-port::system.pc.south_bridge.io_apic.pio           16                       # Packet count per connected master and slave (bytes)
system.iobus.pkt_count_system.ruby.l0_cntrl2.sequencer.mem-master-port::system.pc.com_1.pio            4                       # Packet count per connected master and slave (bytes)
system.iobus.pkt_count_system.ruby.l0_cntrl2.sequencer.mem-master-port::system.ruby.l0_cntrl2.sequencer.pio-slave-port         2076                       # Packet count per connected master and slave (bytes)
system.iobus.pkt_count_system.ruby.l0_cntrl2.sequencer.mem-master-port::system.ruby.l0_cntrl3.sequencer.pio-slave-port            2                       # Packet count per connected master and slave (bytes)
system.iobus.pkt_count_system.ruby.l0_cntrl2.sequencer.mem-master-port::total         2110                       # Packet count per connected master and slave (bytes)
system.iobus.pkt_count_system.ruby.l0_cntrl3.sequencer.mem-master-port::system.pc.south_bridge.io_apic.pio           14                       # Packet count per connected master and slave (bytes)
system.iobus.pkt_count_system.ruby.l0_cntrl3.sequencer.mem-master-port::system.pc.com_1.pio          176                       # Packet count per connected master and slave (bytes)
system.iobus.pkt_count_system.ruby.l0_cntrl3.sequencer.mem-master-port::system.ruby.l0_cntrl0.sequencer.pio-slave-port            2                       # Packet count per connected master and slave (bytes)
system.iobus.pkt_count_system.ruby.l0_cntrl3.sequencer.mem-master-port::system.ruby.l0_cntrl1.sequencer.pio-slave-port            2                       # Packet count per connected master and slave (bytes)
system.iobus.pkt_count_system.ruby.l0_cntrl3.sequencer.mem-master-port::system.ruby.l0_cntrl2.sequencer.pio-slave-port            2                       # Packet count per connected master and slave (bytes)
system.iobus.pkt_count_system.ruby.l0_cntrl3.sequencer.mem-master-port::system.ruby.l0_cntrl3.sequencer.pio-slave-port         2084                       # Packet count per connected master and slave (bytes)
system.iobus.pkt_count_system.ruby.l0_cntrl3.sequencer.mem-master-port::total         2280                       # Packet count per connected master and slave (bytes)
system.iobus.pkt_count::total                    8948                       # Packet count per connected master and slave (bytes)
system.iobus.pkt_size_system.pc.south_bridge.io_apic.int_master::system.ruby.l0_cntrl0.sequencer.pio-slave-port            8                       # Cumulative packet size per connected master and slave (bytes)
system.iobus.pkt_size_system.pc.south_bridge.io_apic.int_master::system.ruby.l0_cntrl1.sequencer.pio-slave-port           12                       # Cumulative packet size per connected master and slave (bytes)
system.iobus.pkt_size_system.pc.south_bridge.io_apic.int_master::system.ruby.l0_cntrl2.sequencer.pio-slave-port           12                       # Cumulative packet size per connected master and slave (bytes)
system.iobus.pkt_size_system.pc.south_bridge.io_apic.int_master::system.ruby.l0_cntrl3.sequencer.pio-slave-port           12                       # Cumulative packet size per connected master and slave (bytes)
system.iobus.pkt_size_system.pc.south_bridge.io_apic.int_master::total           44                       # Cumulative packet size per connected master and slave (bytes)
system.iobus.pkt_size_system.ruby.l0_cntrl0.sequencer.mem-master-port::system.pc.south_bridge.ide.pio           20                       # Cumulative packet size per connected master and slave (bytes)
system.iobus.pkt_size_system.ruby.l0_cntrl0.sequencer.mem-master-port::system.pc.south_bridge.io_apic.pio           32                       # Cumulative packet size per connected master and slave (bytes)
system.iobus.pkt_size_system.ruby.l0_cntrl0.sequencer.mem-master-port::system.ruby.l0_cntrl0.sequencer.pio-slave-port         4144                       # Cumulative packet size per connected master and slave (bytes)
system.iobus.pkt_size_system.ruby.l0_cntrl0.sequencer.mem-master-port::system.ruby.l0_cntrl1.sequencer.pio-slave-port            4                       # Cumulative packet size per connected master and slave (bytes)
system.iobus.pkt_size_system.ruby.l0_cntrl0.sequencer.mem-master-port::total         4200                       # Cumulative packet size per connected master and slave (bytes)
system.iobus.pkt_size_system.ruby.l0_cntrl1.sequencer.mem-master-port::system.pc.south_bridge.ide.pio           26                       # Cumulative packet size per connected master and slave (bytes)
system.iobus.pkt_size_system.ruby.l0_cntrl1.sequencer.mem-master-port::system.pc.south_bridge.io_apic.pio           28                       # Cumulative packet size per connected master and slave (bytes)
system.iobus.pkt_size_system.ruby.l0_cntrl1.sequencer.mem-master-port::system.pc.com_1.pio          127                       # Cumulative packet size per connected master and slave (bytes)
system.iobus.pkt_size_system.ruby.l0_cntrl1.sequencer.mem-master-port::system.ruby.l0_cntrl0.sequencer.pio-slave-port            4                       # Cumulative packet size per connected master and slave (bytes)
system.iobus.pkt_size_system.ruby.l0_cntrl1.sequencer.mem-master-port::system.ruby.l0_cntrl1.sequencer.pio-slave-port         4180                       # Cumulative packet size per connected master and slave (bytes)
system.iobus.pkt_size_system.ruby.l0_cntrl1.sequencer.mem-master-port::system.ruby.l0_cntrl2.sequencer.pio-slave-port           12                       # Cumulative packet size per connected master and slave (bytes)
system.iobus.pkt_size_system.ruby.l0_cntrl1.sequencer.mem-master-port::total         4377                       # Cumulative packet size per connected master and slave (bytes)
system.iobus.pkt_size_system.ruby.l0_cntrl2.sequencer.mem-master-port::system.pc.south_bridge.ide.pio            6                       # Cumulative packet size per connected master and slave (bytes)
system.iobus.pkt_size_system.ruby.l0_cntrl2.sequencer.mem-master-port::system.pc.south_bridge.io_apic.pio           32                       # Cumulative packet size per connected master and slave (bytes)
system.iobus.pkt_size_system.ruby.l0_cntrl2.sequencer.mem-master-port::system.pc.com_1.pio            2                       # Cumulative packet size per connected master and slave (bytes)
system.iobus.pkt_size_system.ruby.l0_cntrl2.sequencer.mem-master-port::system.ruby.l0_cntrl2.sequencer.pio-slave-port         4152                       # Cumulative packet size per connected master and slave (bytes)
system.iobus.pkt_size_system.ruby.l0_cntrl2.sequencer.mem-master-port::system.ruby.l0_cntrl3.sequencer.pio-slave-port            4                       # Cumulative packet size per connected master and slave (bytes)
system.iobus.pkt_size_system.ruby.l0_cntrl2.sequencer.mem-master-port::total         4196                       # Cumulative packet size per connected master and slave (bytes)
system.iobus.pkt_size_system.ruby.l0_cntrl3.sequencer.mem-master-port::system.pc.south_bridge.io_apic.pio           28                       # Cumulative packet size per connected master and slave (bytes)
system.iobus.pkt_size_system.ruby.l0_cntrl3.sequencer.mem-master-port::system.pc.com_1.pio           88                       # Cumulative packet size per connected master and slave (bytes)
system.iobus.pkt_size_system.ruby.l0_cntrl3.sequencer.mem-master-port::system.ruby.l0_cntrl0.sequencer.pio-slave-port            4                       # Cumulative packet size per connected master and slave (bytes)
system.iobus.pkt_size_system.ruby.l0_cntrl3.sequencer.mem-master-port::system.ruby.l0_cntrl1.sequencer.pio-slave-port            4                       # Cumulative packet size per connected master and slave (bytes)
system.iobus.pkt_size_system.ruby.l0_cntrl3.sequencer.mem-master-port::system.ruby.l0_cntrl2.sequencer.pio-slave-port            4                       # Cumulative packet size per connected master and slave (bytes)
system.iobus.pkt_size_system.ruby.l0_cntrl3.sequencer.mem-master-port::system.ruby.l0_cntrl3.sequencer.pio-slave-port         4168                       # Cumulative packet size per connected master and slave (bytes)
system.iobus.pkt_size_system.ruby.l0_cntrl3.sequencer.mem-master-port::total         4296                       # Cumulative packet size per connected master and slave (bytes)
system.iobus.pkt_size::total                    17113                       # Cumulative packet size per connected master and slave (bytes)
system.iobus.reqLayer2.occupancy                79500                       # Layer occupancy (ticks)
system.iobus.reqLayer2.utilization                0.0                       # Layer utilization (%)
system.iobus.reqLayer8.occupancy                51995                       # Layer occupancy (ticks)
system.iobus.reqLayer8.utilization                0.0                       # Layer utilization (%)
system.iobus.reqLayer12.occupancy              277500                       # Layer occupancy (ticks)
system.iobus.reqLayer12.utilization               0.0                       # Layer utilization (%)
system.iobus.reqLayer17.occupancy             2477999                       # Layer occupancy (ticks)
system.iobus.reqLayer17.utilization               0.0                       # Layer utilization (%)
system.iobus.reqLayer18.occupancy             2871970                       # Layer occupancy (ticks)
system.iobus.reqLayer18.utilization               0.0                       # Layer utilization (%)
system.iobus.reqLayer19.occupancy             2434499                       # Layer occupancy (ticks)
system.iobus.reqLayer19.utilization               0.0                       # Layer utilization (%)
system.iobus.reqLayer20.occupancy             2498998                       # Layer occupancy (ticks)
system.iobus.reqLayer20.utilization               0.0                       # Layer utilization (%)
system.iobus.respLayer0.occupancy               15998                       # Layer occupancy (ticks)
system.iobus.respLayer0.utilization               0.0                       # Layer utilization (%)
system.iobus.respLayer2.occupancy             1589000                       # Layer occupancy (ticks)
system.iobus.respLayer2.utilization               0.0                       # Layer utilization (%)
system.iobus.respLayer4.occupancy             1838500                       # Layer occupancy (ticks)
system.iobus.respLayer4.utilization               0.0                       # Layer utilization (%)
system.iobus.respLayer6.occupancy             1583500                       # Layer occupancy (ticks)
system.iobus.respLayer6.utilization               0.0                       # Layer utilization (%)
system.iobus.respLayer8.occupancy             1733000                       # Layer occupancy (ticks)
system.iobus.respLayer8.utilization               0.0                       # Layer utilization (%)
system.pc.south_bridge.ide.disks.dma_read_full_pages            1                       # Number of full page size DMA reads (not PRD).
system.pc.south_bridge.ide.disks.dma_read_bytes         4096                       # Number of bytes transfered via DMA reads (not PRD).
system.pc.south_bridge.ide.disks.dma_read_txs            1                       # Number of DMA read transactions (not PRD).
system.pc.south_bridge.ide.disks.dma_write_full_pages           24                       # Number of full page size DMA writes.
system.pc.south_bridge.ide.disks.dma_write_bytes        98304                       # Number of bytes transfered via DMA writes.
system.pc.south_bridge.ide.disks.dma_write_txs           24                       # Number of DMA write transactions.
system.ruby.clk_domain.clock                      500                       # Clock period in ticks
system.ruby.delayHist::bucket_size                  4                       # delay histogram for all message
system.ruby.delayHist::max_bucket                  39                       # delay histogram for all message
system.ruby.delayHist::samples              116730636                       # delay histogram for all message
system.ruby.delayHist::mean                  0.097595                       # delay histogram for all message
system.ruby.delayHist::stdev                 0.878046                       # delay histogram for all message
system.ruby.delayHist                    |   115308948     98.78%     98.78% |        3064      0.00%     98.78% |     1417961      1.21%    100.00% |         201      0.00%    100.00% |         436      0.00%    100.00% |           9      0.00%    100.00% |          17      0.00%    100.00% |           0      0.00%    100.00% |           0      0.00%    100.00% |           0      0.00%    100.00% # delay histogram for all message
system.ruby.delayHist::total                116730636                       # delay histogram for all message
system.ruby.outstanding_req_hist_seqr::bucket_size            1                      
system.ruby.outstanding_req_hist_seqr::max_bucket            9                      
system.ruby.outstanding_req_hist_seqr::samples   3806980691                      
system.ruby.outstanding_req_hist_seqr::mean     1.000000                      
system.ruby.outstanding_req_hist_seqr::gmean     1.000000                      
system.ruby.outstanding_req_hist_seqr::stdev     0.000226                      
system.ruby.outstanding_req_hist_seqr    |           0      0.00%      0.00% |  3806980496    100.00%    100.00% |         195      0.00%    100.00% |           0      0.00%    100.00% |           0      0.00%    100.00% |           0      0.00%    100.00% |           0      0.00%    100.00% |           0      0.00%    100.00% |           0      0.00%    100.00% |           0      0.00%    100.00%
system.ruby.outstanding_req_hist_seqr::total   3806980691                      
system.ruby.latency_hist_seqr::bucket_size          256                      
system.ruby.latency_hist_seqr::max_bucket         2559                      
[...]
system.ruby.L1Cache_Controller.Ack_all::total        18941                      
system.ruby.L1Cache_Controller.WB_Ack    |       51056      0.72%      0.72% |     6885687     96.90%     97.62% |       80322      1.13%     98.75% |       88876      1.25%    100.00%
system.ruby.L1Cache_Controller.WB_Ack::total      7105941                      
system.ruby.L1Cache_Controller.I.Load    |      111748      1.64%      1.64% |     6418680     94.13%     95.77% |      142830      2.09%     97.86% |      145960      2.14%    100.00%
system.ruby.L1Cache_Controller.I.Load::total      6819218                      
system.ruby.L1Cache_Controller.I.Store   |       22280      3.13%      3.13% |      636079     89.26%     92.39% |       23858      3.35%     95.74% |       30380      4.26%    100.00%
system.ruby.L1Cache_Controller.I.Store::total       712597                      
system.ruby.L1Cache_Controller.I.Inv     |        5649     21.22%     21.22% |       10103     37.95%     59.17% |        4022     15.11%     74.28% |        6848     25.72%    100.00%
system.ruby.L1Cache_Controller.I.Inv::total        26622                      
system.ruby.L1Cache_Controller.S.Load    |      246619     25.57%     25.57% |      186271     19.32%     44.89% |      262834     27.26%     72.15% |      268608     27.85%    100.00%
system.ruby.L1Cache_Controller.S.Load::total       964332                      
system.ruby.L1Cache_Controller.S.Store   |        5081     38.59%     38.59% |        2447     18.58%     57.17% |        2650     20.13%     77.30% |        2989     22.70%    100.00%
system.ruby.L1Cache_Controller.S.Store::total        13167                      
system.ruby.L1Cache_Controller.S.L0_Invalidate_Own |       56800     17.13%     17.13% |      161102     48.58%     65.70% |       56345     16.99%     82.69% |       57391     17.31%    100.00%
system.ruby.L1Cache_Controller.S.L0_Invalidate_Own::total       331638                      
system.ruby.L1Cache_Controller.S.L0_Invalidate_Else |        9595     24.15%     24.15% |        1046      2.63%     26.79% |       15866     39.94%     66.72% |       13219     33.28%    100.00%
system.ruby.L1Cache_Controller.S.L0_Invalidate_Else::total        39726                      
system.ruby.L1Cache_Controller.SS.Load   |        5582     46.01%     46.01% |         647      5.33%     51.34% |        4398     36.25%     87.59% |        1505     12.41%    100.00%
system.ruby.L1Cache_Controller.SS.Load::total        12132                      
system.ruby.L1Cache_Controller.SS.Store  |        1532     88.55%     88.55% |          13      0.75%     89.31% |          46      2.66%     91.97% |         139      8.03%    100.00%
system.ruby.L1Cache_Controller.SS.Store::total         1730                      
system.ruby.L1Cache_Controller.SS.Inv    |       12673     24.73%     24.73% |        1808      3.53%     28.26% |       18971     37.03%     65.29% |       17785     34.71%    100.00%
system.ruby.L1Cache_Controller.SS.Inv::total        51237                      
system.ruby.L1Cache_Controller.SS.L1_Replacement |       57622     17.04%     17.04% |      164257     48.58%     65.62% |       57164     16.91%     82.52% |       59097     17.48%    100.00%
system.ruby.L1Cache_Controller.SS.L1_Replacement::total       338140                      
system.ruby.L1Cache_Controller.E.WriteBack |       43948      0.71%      0.71% |     6014959     97.05%     97.76% |       67532      1.09%     98.85% |       71235      1.15%    100.00%
system.ruby.L1Cache_Controller.E.WriteBack::total      6197674                      
system.ruby.L1Cache_Controller.E.L0_Invalidate_Own |         285      0.12%      0.12% |      239479     98.70%     98.82% |        1751      0.72%     99.54% |        1108      0.46%    100.00%
system.ruby.L1Cache_Controller.E.L0_Invalidate_Own::total       242623                      
system.ruby.L1Cache_Controller.E.L0_Invalidate_Else |        1633     25.32%     25.32% |         222      3.44%     28.76% |        3299     51.15%     79.91% |        1296     20.09%    100.00%
system.ruby.L1Cache_Controller.E.L0_Invalidate_Else::total         6450                      
system.ruby.L1Cache_Controller.EE.Inv    |         565     23.59%     23.59% |          44      1.84%     25.43% |        1046     43.67%     69.10% |         740     30.90%    100.00%
system.ruby.L1Cache_Controller.EE.Inv::total         2395                      
system.ruby.L1Cache_Controller.EE.L1_Replacement |         230      0.10%      0.10% |      237794     98.80%     98.90% |        1633      0.68%     99.57% |        1026      0.43%    100.00%
system.ruby.L1Cache_Controller.EE.L1_Replacement::total       240683                      
system.ruby.L1Cache_Controller.EE.Fwd_GETX |           4     22.22%     22.22% |           1      5.56%     27.78% |           5     27.78%     55.56% |           8     44.44%    100.00%
system.ruby.L1Cache_Controller.EE.Fwd_GETX::total           18                      
system.ruby.L1Cache_Controller.EE.Fwd_GETS |         920     27.97%     27.97% |         152      4.62%     32.59% |        2005     60.96%     93.55% |         212      6.45%    100.00%
system.ruby.L1Cache_Controller.EE.Fwd_GETS::total         3289                      
system.ruby.L1Cache_Controller.M.WriteBack |      205846      0.30%      0.30% |    68398648     99.02%     99.32% |      198464      0.29%     99.61% |      269784      0.39%    100.00%
system.ruby.L1Cache_Controller.M.WriteBack::total     69072742                      
system.ruby.L1Cache_Controller.M.L0_Invalidate_Own |        3728      1.53%      1.53% |      232232     95.32%     96.85% |        4199      1.72%     98.57% |        3475      1.43%    100.00%
system.ruby.L1Cache_Controller.M.L0_Invalidate_Own::total       243634                      
system.ruby.L1Cache_Controller.M.L0_Invalidate_Else |        6694     40.83%     40.83% |         300      1.83%     42.66% |        4728     28.84%     71.50% |        4673     28.50%    100.00%
system.ruby.L1Cache_Controller.M.L0_Invalidate_Else::total        16395                      
system.ruby.L1Cache_Controller.MM.Load   |      141355      0.21%      0.21% |    65963355     99.32%     99.54% |      127938      0.19%     99.73% |      179732      0.27%    100.00%
system.ruby.L1Cache_Controller.MM.Load::total     66412380                      
system.ruby.L1Cache_Controller.MM.Store  |       46038      2.10%      2.10% |     2029263     92.54%     94.64% |       52897      2.41%     97.05% |       64665      2.95%    100.00%
system.ruby.L1Cache_Controller.MM.Store::total      2192863                      
system.ruby.L1Cache_Controller.MM.Inv    |       10395     34.07%     34.07% |        2873      9.42%     43.49% |        8905     29.19%     72.67% |        8338     27.33%    100.00%
system.ruby.L1Cache_Controller.MM.Inv::total        30511                      
system.ruby.L1Cache_Controller.MM.L1_Replacement |       50826      0.74%      0.74% |     6647893     96.83%     97.57% |       78689      1.15%     98.72% |       87850      1.28%    100.00%
system.ruby.L1Cache_Controller.MM.L1_Replacement::total      6865258                      
system.ruby.L1Cache_Controller.MM.Fwd_GETX |        1410     37.07%     37.07% |         355      9.33%     46.40% |         372      9.78%     56.18% |        1667     43.82%    100.00%
system.ruby.L1Cache_Controller.MM.Fwd_GETX::total         3804                      
system.ruby.L1Cache_Controller.MM.Fwd_GETS |        9821     34.76%     34.76% |        4372     15.47%     50.23% |        6288     22.25%     72.48% |        7775     27.52%    100.00%
system.ruby.L1Cache_Controller.MM.Fwd_GETS::total        28256                      
system.ruby.L1Cache_Controller.IS.Data_Exclusive |       45881      0.71%      0.71% |     6254656     97.02%     97.73% |       72582      1.13%     98.86% |       73613      1.14%    100.00%
system.ruby.L1Cache_Controller.IS.Data_Exclusive::total      6446732                      
system.ruby.L1Cache_Controller.IS.DataS_fromL1 |        8353     26.48%     26.48% |        2246      7.12%     33.60% |        9379     29.73%     63.33% |       11567     36.67%    100.00%
system.ruby.L1Cache_Controller.IS.DataS_fromL1::total        31545                      
system.ruby.L1Cache_Controller.IS.Data_all_Acks |       57514     16.87%     16.87% |      161778     47.45%     64.32% |       60869     17.85%     82.17% |       60780     17.83%    100.00%
system.ruby.L1Cache_Controller.IS.Data_all_Acks::total       340941                      
system.ruby.L1Cache_Controller.IM.Data   |        1690     41.74%     41.74% |        1171     28.92%     70.66% |          94      2.32%     72.98% |        1094     27.02%    100.00%
system.ruby.L1Cache_Controller.IM.Data::total         4049                      
system.ruby.L1Cache_Controller.IM.Data_all_Acks |       20594      2.91%      2.91% |      634908     89.61%     92.51% |       23764      3.35%     95.87% |       29287      4.13%    100.00%
system.ruby.L1Cache_Controller.IM.Data_all_Acks::total       708553                      
system.ruby.L1Cache_Controller.SM.Inv    |           4     80.00%     80.00% |           0      0.00%     80.00% |           0      0.00%     80.00% |           1     20.00%    100.00%
system.ruby.L1Cache_Controller.SM.Inv::total            5                      
system.ruby.L1Cache_Controller.SM.Ack    |       18921     51.84%     51.84% |        8452     23.16%     75.00% |        3934     10.78%     85.78% |        5189     14.22%    100.00%
system.ruby.L1Cache_Controller.SM.Ack::total        36496                      
system.ruby.L1Cache_Controller.SM.Ack_all |        8299     43.82%     43.82% |        3631     19.17%     62.99% |        2790     14.73%     77.72% |        4221     22.28%    100.00%
system.ruby.L1Cache_Controller.SM.Ack_all::total        18941                      
system.ruby.L1Cache_Controller.M_I.WB_Ack |       51056      0.72%      0.72% |     6885687     96.90%     97.62% |       80322      1.13%     98.75% |       88876      1.25%    100.00%
system.ruby.L1Cache_Controller.M_I.WB_Ack::total      7105941                      
system.ruby.L1Cache_Controller.S_IL0.Load |           0      0.00%      0.00% |           0      0.00%      0.00% |           1    100.00%    100.00% |           0      0.00%    100.00%
system.ruby.L1Cache_Controller.S_IL0.Load::total            1                      
system.ruby.L1Cache_Controller.S_IL0.Store |           0      0.00%      0.00% |           0      0.00%      0.00% |           0      0.00%      0.00% |           1    100.00%    100.00%
system.ruby.L1Cache_Controller.S_IL0.Store::total            1                      
system.ruby.L1Cache_Controller.S_IL0.L0_Invalidate_Own |       56800     17.13%     17.13% |      161102     48.58%     65.70% |       56345     16.99%     82.69% |       57391     17.31%    100.00%
system.ruby.L1Cache_Controller.S_IL0.L0_Invalidate_Own::total       331638                      
system.ruby.L1Cache_Controller.S_IL0.L0_Invalidate_Else |        9595     24.15%     24.15% |        1046      2.63%     26.79% |       15866     39.94%     66.72% |       13219     33.28%    100.00%
system.ruby.L1Cache_Controller.S_IL0.L0_Invalidate_Else::total        39726                      
system.ruby.L1Cache_Controller.S_IL0.L0_Ack |       66395     17.88%     17.88% |      162148     43.66%     61.54% |       72211     19.44%     80.99% |       70610     19.01%    100.00%
system.ruby.L1Cache_Controller.S_IL0.L0_Ack::total       371364                      
system.ruby.L1Cache_Controller.E_IL0.L0_DataAck |         199      7.40%      7.40% |        1710     63.62%     71.02% |         361     13.43%     84.45% |         418     15.55%    100.00%
system.ruby.L1Cache_Controller.E_IL0.L0_DataAck::total         2688                      
system.ruby.L1Cache_Controller.E_IL0.L0_Invalidate_Own |         285      0.12%      0.12% |      239479     98.70%     98.82% |        1751      0.72%     99.54% |        1108      0.46%    100.00%
system.ruby.L1Cache_Controller.E_IL0.L0_Invalidate_Own::total       242623                      
system.ruby.L1Cache_Controller.E_IL0.L0_Invalidate_Else |        1633     25.32%     25.32% |         222      3.44%     28.76% |        3299     51.15%     79.91% |        1296     20.09%    100.00%
system.ruby.L1Cache_Controller.E_IL0.L0_Invalidate_Else::total         6450                      
system.ruby.L1Cache_Controller.E_IL0.L0_Ack |        1719      0.70%      0.70% |      237991     96.59%     97.29% |        4689      1.90%     99.19% |        1986      0.81%    100.00%
system.ruby.L1Cache_Controller.E_IL0.L0_Ack::total       246385                      
system.ruby.L1Cache_Controller.M_IL0.WriteBack |           0      0.00%      0.00% |           0      0.00%      0.00% |           1    100.00%    100.00% |           0      0.00%    100.00%
system.ruby.L1Cache_Controller.M_IL0.WriteBack::total            1                      
system.ruby.L1Cache_Controller.M_IL0.L0_DataAck |        7450     22.19%     22.19% |       15043     44.80%     66.98% |        5745     17.11%     84.09% |        5343     15.91%    100.00%
system.ruby.L1Cache_Controller.M_IL0.L0_DataAck::total        33581                      
system.ruby.L1Cache_Controller.M_IL0.L0_Invalidate_Own |        3728      1.53%      1.53% |      232232     95.32%     96.85% |        4199      1.72%     98.57% |        3475      1.43%    100.00%
system.ruby.L1Cache_Controller.M_IL0.L0_Invalidate_Own::total       243634                      
system.ruby.L1Cache_Controller.M_IL0.L0_Invalidate_Else |        6694     40.83%     40.83% |         300      1.83%     42.66% |        4728     28.84%     71.50% |        4673     28.50%    100.00%
system.ruby.L1Cache_Controller.M_IL0.L0_Invalidate_Else::total        16395                      
system.ruby.L1Cache_Controller.M_IL0.L0_Ack |        2972      1.31%      1.31% |      217489     96.04%     97.36% |        3181      1.40%     98.76% |        2805      1.24%    100.00%
system.ruby.L1Cache_Controller.M_IL0.L0_Ack::total       226447                      
system.ruby.L1Cache_Controller.MM_IL0.Fwd_GETS |           0      0.00%      0.00% |           0      0.00%      0.00% |           1    100.00%    100.00% |           0      0.00%    100.00%
system.ruby.L1Cache_Controller.MM_IL0.Fwd_GETS::total            1                      
system.ruby.L1Cache_Controller.MM_IL0.L0_Ack |           0      0.00%      0.00% |           0      0.00%      0.00% |           1    100.00%    100.00% |           0      0.00%    100.00%
system.ruby.L1Cache_Controller.MM_IL0.L0_Ack::total            1                      
system.ruby.L2Cache_Controller.L1_GETS        6819368      0.00%      0.00%
system.ruby.L2Cache_Controller.L1_GETX         712610      0.00%      0.00%
system.ruby.L2Cache_Controller.L1_UPGRADE        14897      0.00%      0.00%
system.ruby.L2Cache_Controller.L1_PUTX        7105941      0.00%      0.00%
system.ruby.L2Cache_Controller.L2_Replacement       904590      0.00%      0.00%
system.ruby.L2Cache_Controller.L2_Replacement_clean       901503      0.00%      0.00%
system.ruby.L2Cache_Controller.Mem_Data       1815645      0.00%      0.00%
system.ruby.L2Cache_Controller.Mem_Ack        1806100      0.00%      0.00%
system.ruby.L2Cache_Controller.WB_Data          31440      0.00%      0.00%
system.ruby.L2Cache_Controller.WB_Data_clean        30616      0.00%      0.00%
system.ruby.L2Cache_Controller.Ack              24984      0.00%      0.00%
system.ruby.L2Cache_Controller.Ack_all          14730      0.00%      0.00%
system.ruby.L2Cache_Controller.Unblock          31545      0.00%      0.00%
system.ruby.L2Cache_Controller.Exclusive_Unblock      7174226      0.00%      0.00%
system.ruby.L2Cache_Controller.MEM_Inv             14      0.00%      0.00%
system.ruby.L2Cache_Controller.NP.L1_GETS      1371739      0.00%      0.00%
system.ruby.L2Cache_Controller.NP.L1_GETX       443906      0.00%      0.00%
system.ruby.L2Cache_Controller.SS.L1_GETS       340867      0.00%      0.00%
system.ruby.L2Cache_Controller.SS.L1_GETX         4049      0.00%      0.00%
system.ruby.L2Cache_Controller.SS.L1_UPGRADE        14892      0.00%      0.00%
system.ruby.L2Cache_Controller.SS.L2_Replacement          668      0.00%      0.00%
system.ruby.L2Cache_Controller.SS.L2_Replacement_clean        11667      0.00%      0.00%
system.ruby.L2Cache_Controller.M.L1_GETS      5075030      0.00%      0.00%
system.ruby.L2Cache_Controller.M.L1_GETX       260825      0.00%      0.00%
system.ruby.L2Cache_Controller.M.L2_Replacement       902168      0.00%      0.00%
system.ruby.L2Cache_Controller.M.L2_Replacement_clean       858691      0.00%      0.00%
system.ruby.L2Cache_Controller.MT.L1_GETS        31545      0.00%      0.00%
system.ruby.L2Cache_Controller.MT.L1_GETX         3822      0.00%      0.00%
system.ruby.L2Cache_Controller.MT.L1_PUTX      7105941      0.00%      0.00%
system.ruby.L2Cache_Controller.MT.L2_Replacement         1754      0.00%      0.00%
system.ruby.L2Cache_Controller.MT.L2_Replacement_clean        31145      0.00%      0.00%
system.ruby.L2Cache_Controller.MT.MEM_Inv            7      0.00%      0.00%
system.ruby.L2Cache_Controller.M_I.L1_GETS            4      0.00%      0.00%
system.ruby.L2Cache_Controller.M_I.Mem_Ack      1806100      0.00%      0.00%
system.ruby.L2Cache_Controller.MT_I.WB_Data         1327      0.00%      0.00%
system.ruby.L2Cache_Controller.MT_I.WB_Data_clean          380      0.00%      0.00%
system.ruby.L2Cache_Controller.MT_I.Ack_all           54      0.00%      0.00%
system.ruby.L2Cache_Controller.MT_I.MEM_Inv            7      0.00%      0.00%
system.ruby.L2Cache_Controller.MCT_I.WB_Data        16988      0.00%      0.00%
system.ruby.L2Cache_Controller.MCT_I.WB_Data_clean        11816      0.00%      0.00%
system.ruby.L2Cache_Controller.MCT_I.Ack_all         2341      0.00%      0.00%
system.ruby.L2Cache_Controller.I_I.Ack          24109      0.00%      0.00%
system.ruby.L2Cache_Controller.I_I.Ack_all        11667      0.00%      0.00%
system.ruby.L2Cache_Controller.S_I.Ack            875      0.00%      0.00%
system.ruby.L2Cache_Controller.S_I.Ack_all          668      0.00%      0.00%
system.ruby.L2Cache_Controller.ISS.L1_GETS           37      0.00%      0.00%
system.ruby.L2Cache_Controller.ISS.Mem_Data      1371702      0.00%      0.00%
system.ruby.L2Cache_Controller.IS.Mem_Data           37      0.00%      0.00%
system.ruby.L2Cache_Controller.IM.Mem_Data       443906      0.00%      0.00%
system.ruby.L2Cache_Controller.SS_MB.L1_GETS           96      0.00%      0.00%
system.ruby.L2Cache_Controller.SS_MB.L1_GETX            5      0.00%      0.00%
system.ruby.L2Cache_Controller.SS_MB.L1_UPGRADE            5      0.00%      0.00%
system.ruby.L2Cache_Controller.SS_MB.Exclusive_Unblock        18941      0.00%      0.00%
system.ruby.L2Cache_Controller.MT_MB.L1_GETS           48      0.00%      0.00%
system.ruby.L2Cache_Controller.MT_MB.L1_GETX            3      0.00%      0.00%
system.ruby.L2Cache_Controller.MT_MB.Exclusive_Unblock      7155285      0.00%      0.00%
system.ruby.L2Cache_Controller.MT_IIB.L1_GETS            2      0.00%      0.00%
system.ruby.L2Cache_Controller.MT_IIB.WB_Data        13118      0.00%      0.00%
system.ruby.L2Cache_Controller.MT_IIB.WB_Data_clean        18388      0.00%      0.00%
system.ruby.L2Cache_Controller.MT_IIB.Unblock           39      0.00%      0.00%
system.ruby.L2Cache_Controller.MT_IB.WB_Data            7      0.00%      0.00%
system.ruby.L2Cache_Controller.MT_IB.WB_Data_clean           32      0.00%      0.00%
system.ruby.L2Cache_Controller.MT_SB.Unblock        31506      0.00%      0.00%

---------- End Simulation Statistics   ----------
