
---------- Begin Simulation Statistics ----------
sim_seconds                                  2.888503                       # Number of seconds simulated
sim_ticks                                2888502585000                       # Number of ticks simulated
final_tick                               55118498797001                       # Number of ticks from beginning of simulation (restored from checkpoints and never reset)
sim_freq                                 1000000000000                       # Frequency of simulated ticks
host_inst_rate                                 114448                       # Simulator instruction rate (inst/s)
host_op_rate                                   170833                       # Simulator op (including micro ops) rate (op/s)
host_tick_rate                              454275042                       # Simulator tick rate (ticks/s)
host_mem_usage                                2464480                       # Number of bytes of host memory used
host_seconds                                  6358.49                       # Real time elapsed on the host
sim_insts                                   727714458                       # Number of instructions simulated
sim_ops                                    1086241059                       # Number of ops (including micro ops) simulated
system.voltage_domain.voltage                       1                       # Voltage in Volts
system.clk_domain.clock                          1000                       # Clock period in ticks
system.mem_ctrls0.bytes_read::ruby.dir_cntrl0    384246976                       # Number of bytes read from this memory
system.mem_ctrls0.bytes_read::total         384246976                       # Number of bytes read from this memory
system.mem_ctrls0.bytes_written::ruby.dir_cntrl0    384250048                       # Number of bytes written to this memory
system.mem_ctrls0.bytes_written::total      384250048                       # Number of bytes written to this memory
system.mem_ctrls0.num_reads::ruby.dir_cntrl0      6003859                       # Number of read requests responded to by this memory
system.mem_ctrls0.num_reads::total            6003859                       # Number of read requests responded to by this memory
system.mem_ctrls0.num_writes::ruby.dir_cntrl0      6003907                       # Number of write requests responded to by this memory
system.mem_ctrls0.num_writes::total           6003907                       # Number of write requests responded to by this memory
system.mem_ctrls0.bw_read::ruby.dir_cntrl0    133026357                       # Total read bandwidth from this memory (bytes/s)
system.mem_ctrls0.bw_read::total            133026357                       # Total read bandwidth from this memory (bytes/s)
system.mem_ctrls0.bw_write::ruby.dir_cntrl0    133027421                       # Write bandwidth from this memory (bytes/s)
system.mem_ctrls0.bw_write::total           133027421                       # Write bandwidth from this memory (bytes/s)
system.mem_ctrls0.bw_total::ruby.dir_cntrl0    266053777                       # Total bandwidth to/from this memory (bytes/s)
system.mem_ctrls0.bw_total::total           266053777                       # Total bandwidth to/from this memory (bytes/s)
system.mem_ctrls0.readReqs                    6003859                       # Number of read requests accepted
system.mem_ctrls0.writeReqs                   6003907                       # Number of write requests accepted
system.mem_ctrls0.readBursts                  6003859                       # Number of DRAM read bursts, including those serviced by the write queue
system.mem_ctrls0.writeBursts                 6003907                       # Number of DRAM write bursts, including those merged in the write queue
system.mem_ctrls0.bytesReadDRAM             369104704                       # Total number of bytes read from DRAM
system.mem_ctrls0.bytesReadWrQ               15142272                       # Total number of bytes read from write queue
system.mem_ctrls0.bytesWritten              383121984                       # Total number of bytes written to DRAM
system.mem_ctrls0.bytesReadSys              384246976                       # Total read bytes from the system interface side
system.mem_ctrls0.bytesWrittenSys           384250048                       # Total written bytes from the system interface side
system.mem_ctrls0.servicedByWrQ                236598                       # Number of DRAM read bursts serviced by the write queue
system.mem_ctrls0.mergedWrBursts                17624                       # Number of DRAM write bursts merged with an existing one
system.mem_ctrls0.neitherReadNorWriteReqs            0                       # Number of requests that are neither read nor write
system.mem_ctrls0.perBankRdBursts::0           629000                       # Per bank write bursts
system.mem_ctrls0.perBankRdBursts::1           342202                       # Per bank write bursts
system.mem_ctrls0.perBankRdBursts::2           265507                       # Per bank write bursts
system.mem_ctrls0.perBankRdBursts::3           205716                       # Per bank write bursts
system.mem_ctrls0.perBankRdBursts::4           249346                       # Per bank write bursts
system.mem_ctrls0.perBankRdBursts::5           256794                       # Per bank write bursts
system.mem_ctrls0.perBankRdBursts::6           481914                       # Per bank write bursts
system.mem_ctrls0.perBankRdBursts::7           654987                       # Per bank write bursts
system.mem_ctrls0.perBankRdBursts::8           291392                       # Per bank write bursts
system.mem_ctrls0.perBankRdBursts::9           258831                       # Per bank write bursts
system.mem_ctrls0.perBankRdBursts::10          297277                       # Per bank write bursts
system.mem_ctrls0.perBankRdBursts::11          204587                       # Per bank write bursts
system.mem_ctrls0.perBankRdBursts::12          263669                       # Per bank write bursts
system.mem_ctrls0.perBankRdBursts::13          267849                       # Per bank write bursts
system.mem_ctrls0.perBankRdBursts::14          238134                       # Per bank write bursts
system.mem_ctrls0.perBankRdBursts::15          860056                       # Per bank write bursts
system.mem_ctrls0.perBankWrBursts::0           655749                       # Per bank write bursts
system.mem_ctrls0.perBankWrBursts::1           363839                       # Per bank write bursts
system.mem_ctrls0.perBankWrBursts::2           271613                       # Per bank write bursts
system.mem_ctrls0.perBankWrBursts::3           207465                       # Per bank write bursts
system.mem_ctrls0.perBankWrBursts::4           254837                       # Per bank write bursts
system.mem_ctrls0.perBankWrBursts::5           263791                       # Per bank write bursts
system.mem_ctrls0.perBankWrBursts::6           499399                       # Per bank write bursts
system.mem_ctrls0.perBankWrBursts::7           672684                       # Per bank write bursts
system.mem_ctrls0.perBankWrBursts::8           305426                       # Per bank write bursts
system.mem_ctrls0.perBankWrBursts::9           262849                       # Per bank write bursts
system.mem_ctrls0.perBankWrBursts::10          302563                       # Per bank write bursts
system.mem_ctrls0.perBankWrBursts::11          206861                       # Per bank write bursts
system.mem_ctrls0.perBankWrBursts::12          283961                       # Per bank write bursts
system.mem_ctrls0.perBankWrBursts::13          279083                       # Per bank write bursts
system.mem_ctrls0.perBankWrBursts::14          241138                       # Per bank write bursts
system.mem_ctrls0.perBankWrBursts::15          915023                       # Per bank write bursts
system.mem_ctrls0.numRdRetry                        0                       # Number of times read queue was full causing retry
system.mem_ctrls0.numWrRetry                        0                       # Number of times write queue was full causing retry
system.mem_ctrls0.totGap                 2888502636000                       # Total gap between requests
system.mem_ctrls0.readPktSize::0                    0                       # Read request sizes (log2)
system.mem_ctrls0.readPktSize::1                    0                       # Read request sizes (log2)
system.mem_ctrls0.readPktSize::2                    0                       # Read request sizes (log2)
system.mem_ctrls0.readPktSize::3                    0                       # Read request sizes (log2)
system.mem_ctrls0.readPktSize::4                    0                       # Read request sizes (log2)
system.mem_ctrls0.readPktSize::5                    0                       # Read request sizes (log2)
system.mem_ctrls0.readPktSize::6              6003859                       # Read request sizes (log2)
system.mem_ctrls0.writePktSize::0                   0                       # Write request sizes (log2)
system.mem_ctrls0.writePktSize::1                   0                       # Write request sizes (log2)
system.mem_ctrls0.writePktSize::2                   0                       # Write request sizes (log2)
system.mem_ctrls0.writePktSize::3                   0                       # Write request sizes (log2)
system.mem_ctrls0.writePktSize::4                   0                       # Write request sizes (log2)
system.mem_ctrls0.writePktSize::5                   0                       # Write request sizes (log2)
system.mem_ctrls0.writePktSize::6             6003907                       # Write request sizes (log2)
system.mem_ctrls0.rdQLenPdf::0                5760972                       # What read queue length does an incoming req see
system.mem_ctrls0.rdQLenPdf::1                   6289                       # What read queue length does an incoming req see
system.mem_ctrls0.rdQLenPdf::2                      0                       # What read queue length does an incoming req see
system.mem_ctrls0.rdQLenPdf::3                      0                       # What read queue length does an incoming req see
system.mem_ctrls0.rdQLenPdf::4                      0                       # What read queue length does an incoming req see
system.mem_ctrls0.rdQLenPdf::5                      0                       # What read queue length does an incoming req see
system.mem_ctrls0.rdQLenPdf::6                      0                       # What read queue length does an incoming req see
system.mem_ctrls0.rdQLenPdf::7                      0                       # What read queue length does an incoming req see
system.mem_ctrls0.rdQLenPdf::8                      0                       # What read queue length does an incoming req see
system.mem_ctrls0.rdQLenPdf::9                      0                       # What read queue length does an incoming req see
system.mem_ctrls0.rdQLenPdf::10                     0                       # What read queue length does an incoming req see
system.mem_ctrls0.rdQLenPdf::11                     0                       # What read queue length does an incoming req see
system.mem_ctrls0.rdQLenPdf::12                     0                       # What read queue length does an incoming req see
system.mem_ctrls0.rdQLenPdf::13                     0                       # What read queue length does an incoming req see
system.mem_ctrls0.rdQLenPdf::14                     0                       # What read queue length does an incoming req see
system.mem_ctrls0.rdQLenPdf::15                     0                       # What read queue length does an incoming req see
system.mem_ctrls0.rdQLenPdf::16                     0                       # What read queue length does an incoming req see
system.mem_ctrls0.rdQLenPdf::17                     0                       # What read queue length does an incoming req see
system.mem_ctrls0.rdQLenPdf::18                     0                       # What read queue length does an incoming req see
system.mem_ctrls0.rdQLenPdf::19                     0                       # What read queue length does an incoming req see
system.mem_ctrls0.rdQLenPdf::20                     0                       # What read queue length does an incoming req see
system.mem_ctrls0.rdQLenPdf::21                     0                       # What read queue length does an incoming req see
system.mem_ctrls0.rdQLenPdf::22                     0                       # What read queue length does an incoming req see
system.mem_ctrls0.rdQLenPdf::23                     0                       # What read queue length does an incoming req see
system.mem_ctrls0.rdQLenPdf::24                     0                       # What read queue length does an incoming req see
system.mem_ctrls0.rdQLenPdf::25                     0                       # What read queue length does an incoming req see
system.mem_ctrls0.rdQLenPdf::26                     0                       # What read queue length does an incoming req see
system.mem_ctrls0.rdQLenPdf::27                     0                       # What read queue length does an incoming req see
system.mem_ctrls0.rdQLenPdf::28                     0                       # What read queue length does an incoming req see
system.mem_ctrls0.rdQLenPdf::29                     0                       # What read queue length does an incoming req see
system.mem_ctrls0.rdQLenPdf::30                     0                       # What read queue length does an incoming req see
system.mem_ctrls0.rdQLenPdf::31                     0                       # What read queue length does an incoming req see
system.mem_ctrls0.wrQLenPdf::0                      0                       # What write queue length does an incoming req see
system.mem_ctrls0.wrQLenPdf::1                      0                       # What write queue length does an incoming req see
system.mem_ctrls0.wrQLenPdf::2                      0                       # What write queue length does an incoming req see
system.mem_ctrls0.wrQLenPdf::3                      0                       # What write queue length does an incoming req see
system.mem_ctrls0.wrQLenPdf::4                      0                       # What write queue length does an incoming req see
system.mem_ctrls0.wrQLenPdf::5                      0                       # What write queue length does an incoming req see
system.mem_ctrls0.wrQLenPdf::6                      0                       # What write queue length does an incoming req see
system.mem_ctrls0.wrQLenPdf::7                      0                       # What write queue length does an incoming req see
system.mem_ctrls0.wrQLenPdf::8                      0                       # What write queue length does an incoming req see
system.mem_ctrls0.wrQLenPdf::9                      0                       # What write queue length does an incoming req see
system.mem_ctrls0.wrQLenPdf::10                     0                       # What write queue length does an incoming req see
system.mem_ctrls0.wrQLenPdf::11                     0                       # What write queue length does an incoming req see
system.mem_ctrls0.wrQLenPdf::12                     0                       # What write queue length does an incoming req see
system.mem_ctrls0.wrQLenPdf::13                     0                       # What write queue length does an incoming req see
system.mem_ctrls0.wrQLenPdf::14                     0                       # What write queue length does an incoming req see
system.mem_ctrls0.wrQLenPdf::15                 16957                       # What write queue length does an incoming req see
system.mem_ctrls0.wrQLenPdf::16                 17479                       # What write queue length does an incoming req see
system.mem_ctrls0.wrQLenPdf::17                368562                       # What write queue length does an incoming req see
system.mem_ctrls0.wrQLenPdf::18                372223                       # What write queue length does an incoming req see
system.mem_ctrls0.wrQLenPdf::19                372352                       # What write queue length does an incoming req see
system.mem_ctrls0.wrQLenPdf::20                372310                       # What write queue length does an incoming req see
system.mem_ctrls0.wrQLenPdf::21                372248                       # What write queue length does an incoming req see
system.mem_ctrls0.wrQLenPdf::22                372620                       # What write queue length does an incoming req see
system.mem_ctrls0.wrQLenPdf::23                372809                       # What write queue length does an incoming req see
system.mem_ctrls0.wrQLenPdf::24                372440                       # What write queue length does an incoming req see
system.mem_ctrls0.wrQLenPdf::25                372358                       # What write queue length does an incoming req see
system.mem_ctrls0.wrQLenPdf::26                372154                       # What write queue length does an incoming req see
system.mem_ctrls0.wrQLenPdf::27                371971                       # What write queue length does an incoming req see
system.mem_ctrls0.wrQLenPdf::28                371953                       # What write queue length does an incoming req see
system.mem_ctrls0.wrQLenPdf::29                371948                       # What write queue length does an incoming req see
system.mem_ctrls0.wrQLenPdf::30                371943                       # What write queue length does an incoming req see
system.mem_ctrls0.wrQLenPdf::31                371936                       # What write queue length does an incoming req see
system.mem_ctrls0.wrQLenPdf::32                371936                       # What write queue length does an incoming req see
system.mem_ctrls0.wrQLenPdf::33                    80                       # What write queue length does an incoming req see
system.mem_ctrls0.wrQLenPdf::34                     4                       # What write queue length does an incoming req see
system.mem_ctrls0.wrQLenPdf::35                     0                       # What write queue length does an incoming req see
system.mem_ctrls0.wrQLenPdf::36                     0                       # What write queue length does an incoming req see
system.mem_ctrls0.wrQLenPdf::37                     0                       # What write queue length does an incoming req see
system.mem_ctrls0.wrQLenPdf::38                     0                       # What write queue length does an incoming req see
system.mem_ctrls0.wrQLenPdf::39                     0                       # What write queue length does an incoming req see
system.mem_ctrls0.wrQLenPdf::40                     0                       # What write queue length does an incoming req see
system.mem_ctrls0.wrQLenPdf::41                     0                       # What write queue length does an incoming req see
system.mem_ctrls0.wrQLenPdf::42                     0                       # What write queue length does an incoming req see
system.mem_ctrls0.wrQLenPdf::43                     0                       # What write queue length does an incoming req see
system.mem_ctrls0.wrQLenPdf::44                     0                       # What write queue length does an incoming req see
system.mem_ctrls0.wrQLenPdf::45                     0                       # What write queue length does an incoming req see
system.mem_ctrls0.wrQLenPdf::46                     0                       # What write queue length does an incoming req see
system.mem_ctrls0.wrQLenPdf::47                     0                       # What write queue length does an incoming req see
system.mem_ctrls0.wrQLenPdf::48                     0                       # What write queue length does an incoming req see
system.mem_ctrls0.wrQLenPdf::49                     0                       # What write queue length does an incoming req see
system.mem_ctrls0.wrQLenPdf::50                     0                       # What write queue length does an incoming req see
system.mem_ctrls0.wrQLenPdf::51                     0                       # What write queue length does an incoming req see
system.mem_ctrls0.wrQLenPdf::52                     0                       # What write queue length does an incoming req see
system.mem_ctrls0.wrQLenPdf::53                     0                       # What write queue length does an incoming req see
system.mem_ctrls0.wrQLenPdf::54                     0                       # What write queue length does an incoming req see
system.mem_ctrls0.wrQLenPdf::55                     0                       # What write queue length does an incoming req see
system.mem_ctrls0.wrQLenPdf::56                     0                       # What write queue length does an incoming req see
system.mem_ctrls0.wrQLenPdf::57                     0                       # What write queue length does an incoming req see
system.mem_ctrls0.wrQLenPdf::58                     0                       # What write queue length does an incoming req see
system.mem_ctrls0.wrQLenPdf::59                     0                       # What write queue length does an incoming req see
system.mem_ctrls0.wrQLenPdf::60                     0                       # What write queue length does an incoming req see
system.mem_ctrls0.wrQLenPdf::61                     0                       # What write queue length does an incoming req see
system.mem_ctrls0.wrQLenPdf::62                     0                       # What write queue length does an incoming req see
system.mem_ctrls0.wrQLenPdf::63                     0                       # What write queue length does an incoming req see
system.mem_ctrls0.bytesPerActivate::samples      7485176                       # Bytes accessed per row activation
system.mem_ctrls0.bytesPerActivate::mean   100.495533                       # Bytes accessed per row activation
system.mem_ctrls0.bytesPerActivate::gmean    81.183131                       # Bytes accessed per row activation
system.mem_ctrls0.bytesPerActivate::stdev   109.982868                       # Bytes accessed per row activation
system.mem_ctrls0.bytesPerActivate::0-127      5899442     78.82%     78.82% # Bytes accessed per row activation
system.mem_ctrls0.bytesPerActivate::128-255      1092772     14.60%     93.41% # Bytes accessed per row activation
system.mem_ctrls0.bytesPerActivate::256-383       257160      3.44%     96.85% # Bytes accessed per row activation
system.mem_ctrls0.bytesPerActivate::384-511        99279      1.33%     98.18% # Bytes accessed per row activation
system.mem_ctrls0.bytesPerActivate::512-639        45598      0.61%     98.79% # Bytes accessed per row activation
system.mem_ctrls0.bytesPerActivate::640-767        25338      0.34%     99.12% # Bytes accessed per row activation
system.mem_ctrls0.bytesPerActivate::768-895        18721      0.25%     99.37% # Bytes accessed per row activation
system.mem_ctrls0.bytesPerActivate::896-1023        26355      0.35%     99.73% # Bytes accessed per row activation
system.mem_ctrls0.bytesPerActivate::1024-1151        20511      0.27%    100.00% # Bytes accessed per row activation
system.mem_ctrls0.bytesPerActivate::total      7485176                       # Bytes accessed per row activation
system.mem_ctrls0.rdPerTurnAround::samples       371936                       # Reads before turning the bus around for writes
system.mem_ctrls0.rdPerTurnAround::mean     15.506052                       # Reads before turning the bus around for writes
system.mem_ctrls0.rdPerTurnAround::gmean    15.423459                       # Reads before turning the bus around for writes
system.mem_ctrls0.rdPerTurnAround::stdev     1.663076                       # Reads before turning the bus around for writes
system.mem_ctrls0.rdPerTurnAround::2-3             13      0.00%      0.00% # Reads before turning the bus around for writes
system.mem_ctrls0.rdPerTurnAround::4-5            529      0.14%      0.15% # Reads before turning the bus around for writes
system.mem_ctrls0.rdPerTurnAround::6-7            913      0.25%      0.39% # Reads before turning the bus around for writes
system.mem_ctrls0.rdPerTurnAround::8-9            971      0.26%      0.65% # Reads before turning the bus around for writes
system.mem_ctrls0.rdPerTurnAround::10-11         2644      0.71%      1.36% # Reads before turning the bus around for writes
system.mem_ctrls0.rdPerTurnAround::12-13        10415      2.80%      4.16% # Reads before turning the bus around for writes
system.mem_ctrls0.rdPerTurnAround::14-15       125214     33.67%     37.83% # Reads before turning the bus around for writes
system.mem_ctrls0.rdPerTurnAround::16-17       228462     61.43%     99.25% # Reads before turning the bus around for writes
system.mem_ctrls0.rdPerTurnAround::18-19         1115      0.30%     99.55% # Reads before turning the bus around for writes
system.mem_ctrls0.rdPerTurnAround::20-21          245      0.07%     99.62% # Reads before turning the bus around for writes
system.mem_ctrls0.rdPerTurnAround::22-23          132      0.04%     99.66% # Reads before turning the bus around for writes
system.mem_ctrls0.rdPerTurnAround::24-25          117      0.03%     99.69% # Reads before turning the bus around for writes
system.mem_ctrls0.rdPerTurnAround::26-27          187      0.05%     99.74% # Reads before turning the bus around for writes
system.mem_ctrls0.rdPerTurnAround::28-29          162      0.04%     99.78% # Reads before turning the bus around for writes
system.mem_ctrls0.rdPerTurnAround::30-31          177      0.05%     99.83% # Reads before turning the bus around for writes
system.mem_ctrls0.rdPerTurnAround::32-33          180      0.05%     99.88% # Reads before turning the bus around for writes
system.mem_ctrls0.rdPerTurnAround::34-35           98      0.03%     99.90% # Reads before turning the bus around for writes
system.mem_ctrls0.rdPerTurnAround::36-37           69      0.02%     99.92% # Reads before turning the bus around for writes
system.mem_ctrls0.rdPerTurnAround::38-39           20      0.01%     99.93% # Reads before turning the bus around for writes
system.mem_ctrls0.rdPerTurnAround::40-41           30      0.01%     99.93% # Reads before turning the bus around for writes
system.mem_ctrls0.rdPerTurnAround::42-43           18      0.00%     99.94% # Reads before turning the bus around for writes
system.mem_ctrls0.rdPerTurnAround::44-45           29      0.01%     99.95% # Reads before turning the bus around for writes
system.mem_ctrls0.rdPerTurnAround::46-47           39      0.01%     99.96% # Reads before turning the bus around for writes
system.mem_ctrls0.rdPerTurnAround::48-49           78      0.02%     99.98% # Reads before turning the bus around for writes
system.mem_ctrls0.rdPerTurnAround::50-51           68      0.02%    100.00% # Reads before turning the bus around for writes
system.mem_ctrls0.rdPerTurnAround::52-53            6      0.00%    100.00% # Reads before turning the bus around for writes
system.mem_ctrls0.rdPerTurnAround::56-57            1      0.00%    100.00% # Reads before turning the bus around for writes
system.mem_ctrls0.rdPerTurnAround::58-59            2      0.00%    100.00% # Reads before turning the bus around for writes
system.mem_ctrls0.rdPerTurnAround::60-61            1      0.00%    100.00% # Reads before turning the bus around for writes
system.mem_ctrls0.rdPerTurnAround::62-63            1      0.00%    100.00% # Reads before turning the bus around for writes
system.mem_ctrls0.rdPerTurnAround::total       371936                       # Reads before turning the bus around for writes
system.mem_ctrls0.wrPerTurnAround::samples       371936                       # Writes before turning the bus around for reads
system.mem_ctrls0.wrPerTurnAround::mean     16.094922                       # Writes before turning the bus around for reads
system.mem_ctrls0.wrPerTurnAround::gmean    16.089574                       # Writes before turning the bus around for reads
system.mem_ctrls0.wrPerTurnAround::stdev     0.430697                       # Writes before turning the bus around for reads
system.mem_ctrls0.wrPerTurnAround::16          354476     95.31%     95.31% # Writes before turning the bus around for reads
system.mem_ctrls0.wrPerTurnAround::17             259      0.07%     95.38% # Writes before turning the bus around for reads
system.mem_ctrls0.wrPerTurnAround::18           16586      4.46%     99.83% # Writes before turning the bus around for reads
system.mem_ctrls0.wrPerTurnAround::19             588      0.16%     99.99% # Writes before turning the bus around for reads
system.mem_ctrls0.wrPerTurnAround::20              25      0.01%    100.00% # Writes before turning the bus around for reads
system.mem_ctrls0.wrPerTurnAround::21               2      0.00%    100.00% # Writes before turning the bus around for reads
system.mem_ctrls0.wrPerTurnAround::total       371936                       # Writes before turning the bus around for reads
system.mem_ctrls0.totQLat                133973803461                       # Total ticks spent queuing
system.mem_ctrls0.totMemAccLat           242109947211                       # Total ticks spent from burst creation until serviced by the DRAM
system.mem_ctrls0.totBusLat               28836305000                       # Total ticks spent in databus transfers
system.mem_ctrls0.avgQLat                    23230.06                       # Average queueing delay per DRAM burst
system.mem_ctrls0.avgBusLat                   5000.00                       # Average bus latency per DRAM burst
system.mem_ctrls0.avgMemAccLat               41980.06                       # Average memory access latency per DRAM burst
system.mem_ctrls0.avgRdBW                      127.78                       # Average DRAM read bandwidth in MiByte/s
system.mem_ctrls0.avgWrBW                      132.64                       # Average achieved write bandwidth in MiByte/s
system.mem_ctrls0.avgRdBWSys                   133.03                       # Average system read bandwidth in MiByte/s
system.mem_ctrls0.avgWrBWSys                   133.03                       # Average system write bandwidth in MiByte/s
system.mem_ctrls0.peakBW                     12800.00                       # Theoretical peak bandwidth in MiByte/s
system.mem_ctrls0.busUtil                        2.03                       # Data bus utilization in percentage
system.mem_ctrls0.busUtilRead                    1.00                       # Data bus utilization in percentage for reads
system.mem_ctrls0.busUtilWrite                   1.04                       # Data bus utilization in percentage for writes
system.mem_ctrls0.avgRdQLen                      1.00                       # Average read queue length when enqueuing
system.mem_ctrls0.avgWrQLen                     25.67                       # Average write queue length when enqueuing
system.mem_ctrls0.readRowHits                 1420938                       # Number of row buffer hits during reads
system.mem_ctrls0.writeRowHits                2847429                       # Number of row buffer hits during writes
system.mem_ctrls0.readRowHitRate                24.64                       # Row buffer hit rate for reads
system.mem_ctrls0.writeRowHitRate               47.57                       # Row buffer hit rate for writes
system.mem_ctrls0.avgGap                    240552.88                       # Average gap between requests
system.mem_ctrls0.pageHitRate                   36.32                       # Row buffer hit rate, read and write combined
system.mem_ctrls0_0.actEnergy             29821100400                       # Energy for activate commands per rank (pJ)
system.mem_ctrls0_0.preEnergy             16271433750                       # Energy for precharge commands per rank (pJ)
system.mem_ctrls0_0.readEnergy            24099535200                       # Energy for read commands per rank (pJ)
system.mem_ctrls0_0.writeEnergy           20694709440                       # Energy for write commands per rank (pJ)
system.mem_ctrls0_0.refreshEnergy        188980387440                       # Energy for refresh commands per rank (pJ)
system.mem_ctrls0_0.actBackEnergy        1305515934810                       # Energy for active background per rank (pJ)
system.mem_ctrls0_0.preBackEnergy        590828367750                       # Energy for precharge background per rank (pJ)
system.mem_ctrls0_0.totalEnergy          2176211468790                       # Total energy per rank (pJ)
system.mem_ctrls0_0.averagePower           752.139116                       # Core power per rank (mW)
system.mem_ctrls0_0.memoryStateTime::IDLE 974331258001                       # Time in different power states
system.mem_ctrls0_0.memoryStateTime::REF  96453500000                       # Time in different power states
system.mem_ctrls0_0.memoryStateTime::PRE_PDN            0                       # Time in different power states
system.mem_ctrls0_0.memoryStateTime::ACT 1817717956499                       # Time in different power states
system.mem_ctrls0_0.memoryStateTime::ACT_PDN            0                       # Time in different power states
system.mem_ctrls0_1.actEnergy             26847223200                       # Energy for activate commands per rank (pJ)
system.mem_ctrls0_1.preEnergy             14648782500                       # Energy for precharge commands per rank (pJ)
system.mem_ctrls0_1.readEnergy            20962492200                       # Energy for read commands per rank (pJ)
system.mem_ctrls0_1.writeEnergy           18161852400                       # Energy for write commands per rank (pJ)
system.mem_ctrls0_1.refreshEnergy        188980387440                       # Energy for refresh commands per rank (pJ)
system.mem_ctrls0_1.actBackEnergy        1294967754495                       # Energy for active background per rank (pJ)
system.mem_ctrls0_1.preBackEnergy        600081157500                       # Energy for precharge background per rank (pJ)
system.mem_ctrls0_1.totalEnergy          2164649649735                       # Total energy per rank (pJ)
system.mem_ctrls0_1.averagePower           748.143136                       # Core power per rank (mW)
system.mem_ctrls0_1.memoryStateTime::IDLE 989922348751                       # Time in different power states
system.mem_ctrls0_1.memoryStateTime::REF  96453500000                       # Time in different power states
system.mem_ctrls0_1.memoryStateTime::PRE_PDN            0                       # Time in different power states
system.mem_ctrls0_1.memoryStateTime::ACT 1802129829249                       # Time in different power states
system.mem_ctrls0_1.memoryStateTime::ACT_PDN            0                       # Time in different power states
system.mem_ctrls1.bytes_read::ruby.dir_cntrl1    377370624                       # Number of bytes read from this memory
system.mem_ctrls1.bytes_read::total         377370624                       # Number of bytes read from this memory
system.mem_ctrls1.bytes_written::ruby.dir_cntrl1    377374208                       # Number of bytes written to this memory
system.mem_ctrls1.bytes_written::total      377374208                       # Number of bytes written to this memory
system.mem_ctrls1.num_reads::ruby.dir_cntrl1      5896416                       # Number of read requests responded to by this memory
system.mem_ctrls1.num_reads::total            5896416                       # Number of read requests responded to by this memory
system.mem_ctrls1.num_writes::ruby.dir_cntrl1      5896472                       # Number of write requests responded to by this memory
system.mem_ctrls1.num_writes::total           5896472                       # Number of write requests responded to by this memory
system.mem_ctrls1.bw_read::ruby.dir_cntrl1    130645763                       # Total read bandwidth from this memory (bytes/s)
system.mem_ctrls1.bw_read::total            130645763                       # Total read bandwidth from this memory (bytes/s)
system.mem_ctrls1.bw_write::ruby.dir_cntrl1    130647004                       # Write bandwidth from this memory (bytes/s)
system.mem_ctrls1.bw_write::total           130647004                       # Write bandwidth from this memory (bytes/s)
system.mem_ctrls1.bw_total::ruby.dir_cntrl1    261292767                       # Total bandwidth to/from this memory (bytes/s)
system.mem_ctrls1.bw_total::total           261292767                       # Total bandwidth to/from this memory (bytes/s)
system.mem_ctrls1.readReqs                    5896416                       # Number of read requests accepted
system.mem_ctrls1.writeReqs                   5896472                       # Number of write requests accepted
system.mem_ctrls1.readBursts                  5896416                       # Number of DRAM read bursts, including those serviced by the write queue
system.mem_ctrls1.writeBursts                 5896472                       # Number of DRAM write bursts, including those merged in the write queue
system.mem_ctrls1.bytesReadDRAM             363379584                       # Total number of bytes read from DRAM
system.mem_ctrls1.bytesReadWrQ               13991040                       # Total number of bytes read from write queue
system.mem_ctrls1.bytesWritten              376479680                       # Total number of bytes written to DRAM
system.mem_ctrls1.bytesReadSys              377370624                       # Total read bytes from the system interface side
system.mem_ctrls1.bytesWrittenSys           377374208                       # Total written bytes from the system interface side
system.mem_ctrls1.servicedByWrQ                218610                       # Number of DRAM read bursts serviced by the write queue
system.mem_ctrls1.mergedWrBursts                13980                       # Number of DRAM write bursts merged with an existing one
system.mem_ctrls1.neitherReadNorWriteReqs            0                       # Number of requests that are neither read nor write
system.mem_ctrls1.perBankRdBursts::0           624009                       # Per bank write bursts
system.mem_ctrls1.perBankRdBursts::1           337244                       # Per bank write bursts
system.mem_ctrls1.perBankRdBursts::2           256407                       # Per bank write bursts
system.mem_ctrls1.perBankRdBursts::3           201007                       # Per bank write bursts
system.mem_ctrls1.perBankRdBursts::4           251123                       # Per bank write bursts
system.mem_ctrls1.perBankRdBursts::5           261573                       # Per bank write bursts
system.mem_ctrls1.perBankRdBursts::6           473191                       # Per bank write bursts
system.mem_ctrls1.perBankRdBursts::7           651100                       # Per bank write bursts
system.mem_ctrls1.perBankRdBursts::8           263480                       # Per bank write bursts
system.mem_ctrls1.perBankRdBursts::9           251305                       # Per bank write bursts
system.mem_ctrls1.perBankRdBursts::10          295716                       # Per bank write bursts
system.mem_ctrls1.perBankRdBursts::11          203013                       # Per bank write bursts
system.mem_ctrls1.perBankRdBursts::12          261445                       # Per bank write bursts
system.mem_ctrls1.perBankRdBursts::13          259611                       # Per bank write bursts
system.mem_ctrls1.perBankRdBursts::14          242965                       # Per bank write bursts
system.mem_ctrls1.perBankRdBursts::15          844617                       # Per bank write bursts
system.mem_ctrls1.perBankWrBursts::0           650376                       # Per bank write bursts
system.mem_ctrls1.perBankWrBursts::1           358275                       # Per bank write bursts
system.mem_ctrls1.perBankWrBursts::2           261980                       # Per bank write bursts
system.mem_ctrls1.perBankWrBursts::3           202623                       # Per bank write bursts
system.mem_ctrls1.perBankWrBursts::4           256936                       # Per bank write bursts
system.mem_ctrls1.perBankWrBursts::5           270183                       # Per bank write bursts
system.mem_ctrls1.perBankWrBursts::6           488806                       # Per bank write bursts
system.mem_ctrls1.perBankWrBursts::7           668965                       # Per bank write bursts
system.mem_ctrls1.perBankWrBursts::8           268963                       # Per bank write bursts
system.mem_ctrls1.perBankWrBursts::9           254652                       # Per bank write bursts
system.mem_ctrls1.perBankWrBursts::10          301119                       # Per bank write bursts
system.mem_ctrls1.perBankWrBursts::11          205373                       # Per bank write bursts
system.mem_ctrls1.perBankWrBursts::12          282204                       # Per bank write bursts
system.mem_ctrls1.perBankWrBursts::13          266286                       # Per bank write bursts
system.mem_ctrls1.perBankWrBursts::14          246538                       # Per bank write bursts
system.mem_ctrls1.perBankWrBursts::15          899216                       # Per bank write bursts
system.mem_ctrls1.numRdRetry                        0                       # Number of times read queue was full causing retry
system.mem_ctrls1.numWrRetry                        0                       # Number of times write queue was full causing retry
system.mem_ctrls1.totGap                 2888503293500                       # Total gap between requests
system.mem_ctrls1.readPktSize::0                    0                       # Read request sizes (log2)
system.mem_ctrls1.readPktSize::1                    0                       # Read request sizes (log2)
system.mem_ctrls1.readPktSize::2                    0                       # Read request sizes (log2)
system.mem_ctrls1.readPktSize::3                    0                       # Read request sizes (log2)
system.mem_ctrls1.readPktSize::4                    0                       # Read request sizes (log2)
system.mem_ctrls1.readPktSize::5                    0                       # Read request sizes (log2)
system.mem_ctrls1.readPktSize::6              5896416                       # Read request sizes (log2)
system.mem_ctrls1.writePktSize::0                   0                       # Write request sizes (log2)
system.mem_ctrls1.writePktSize::1                   0                       # Write request sizes (log2)
system.mem_ctrls1.writePktSize::2                   0                       # Write request sizes (log2)
system.mem_ctrls1.writePktSize::3                   0                       # Write request sizes (log2)
system.mem_ctrls1.writePktSize::4                   0                       # Write request sizes (log2)
system.mem_ctrls1.writePktSize::5                   0                       # Write request sizes (log2)
system.mem_ctrls1.writePktSize::6             5896472                       # Write request sizes (log2)
system.mem_ctrls1.rdQLenPdf::0                5672869                       # What read queue length does an incoming req see
system.mem_ctrls1.rdQLenPdf::1                   4937                       # What read queue length does an incoming req see
system.mem_ctrls1.rdQLenPdf::2                      0                       # What read queue length does an incoming req see
system.mem_ctrls1.rdQLenPdf::3                      0                       # What read queue length does an incoming req see
system.mem_ctrls1.rdQLenPdf::4                      0                       # What read queue length does an incoming req see
system.mem_ctrls1.rdQLenPdf::5                      0                       # What read queue length does an incoming req see
system.mem_ctrls1.rdQLenPdf::6                      0                       # What read queue length does an incoming req see
system.mem_ctrls1.rdQLenPdf::7                      0                       # What read queue length does an incoming req see
system.mem_ctrls1.rdQLenPdf::8                      0                       # What read queue length does an incoming req see
system.mem_ctrls1.rdQLenPdf::9                      0                       # What read queue length does an incoming req see
system.mem_ctrls1.rdQLenPdf::10                     0                       # What read queue length does an incoming req see
system.mem_ctrls1.rdQLenPdf::11                     0                       # What read queue length does an incoming req see
system.mem_ctrls1.rdQLenPdf::12                     0                       # What read queue length does an incoming req see
system.mem_ctrls1.rdQLenPdf::13                     0                       # What read queue length does an incoming req see
system.mem_ctrls1.rdQLenPdf::14                     0                       # What read queue length does an incoming req see
system.mem_ctrls1.rdQLenPdf::15                     0                       # What read queue length does an incoming req see
system.mem_ctrls1.rdQLenPdf::16                     0                       # What read queue length does an incoming req see
system.mem_ctrls1.rdQLenPdf::17                     0                       # What read queue length does an incoming req see
system.mem_ctrls1.rdQLenPdf::18                     0                       # What read queue length does an incoming req see
system.mem_ctrls1.rdQLenPdf::19                     0                       # What read queue length does an incoming req see
system.mem_ctrls1.rdQLenPdf::20                     0                       # What read queue length does an incoming req see
system.mem_ctrls1.rdQLenPdf::21                     0                       # What read queue length does an incoming req see
system.mem_ctrls1.rdQLenPdf::22                     0                       # What read queue length does an incoming req see
system.mem_ctrls1.rdQLenPdf::23                     0                       # What read queue length does an incoming req see
system.mem_ctrls1.rdQLenPdf::24                     0                       # What read queue length does an incoming req see
system.mem_ctrls1.rdQLenPdf::25                     0                       # What read queue length does an incoming req see
system.mem_ctrls1.rdQLenPdf::26                     0                       # What read queue length does an incoming req see
system.mem_ctrls1.rdQLenPdf::27                     0                       # What read queue length does an incoming req see
system.mem_ctrls1.rdQLenPdf::28                     0                       # What read queue length does an incoming req see
system.mem_ctrls1.rdQLenPdf::29                     0                       # What read queue length does an incoming req see
system.mem_ctrls1.rdQLenPdf::30                     0                       # What read queue length does an incoming req see
system.mem_ctrls1.rdQLenPdf::31                     0                       # What read queue length does an incoming req see
system.mem_ctrls1.wrQLenPdf::0                      0                       # What write queue length does an incoming req see
system.mem_ctrls1.wrQLenPdf::1                      0                       # What write queue length does an incoming req see
system.mem_ctrls1.wrQLenPdf::2                      0                       # What write queue length does an incoming req see
system.mem_ctrls1.wrQLenPdf::3                      0                       # What write queue length does an incoming req see
system.mem_ctrls1.wrQLenPdf::4                      0                       # What write queue length does an incoming req see
system.mem_ctrls1.wrQLenPdf::5                      0                       # What write queue length does an incoming req see
system.mem_ctrls1.wrQLenPdf::6                      0                       # What write queue length does an incoming req see
system.mem_ctrls1.wrQLenPdf::7                      0                       # What write queue length does an incoming req see
system.mem_ctrls1.wrQLenPdf::8                      0                       # What write queue length does an incoming req see
system.mem_ctrls1.wrQLenPdf::9                      0                       # What write queue length does an incoming req see
system.mem_ctrls1.wrQLenPdf::10                     0                       # What write queue length does an incoming req see
system.mem_ctrls1.wrQLenPdf::11                     0                       # What write queue length does an incoming req see
system.mem_ctrls1.wrQLenPdf::12                     0                       # What write queue length does an incoming req see
system.mem_ctrls1.wrQLenPdf::13                     0                       # What write queue length does an incoming req see
system.mem_ctrls1.wrQLenPdf::14                     0                       # What write queue length does an incoming req see
system.mem_ctrls1.wrQLenPdf::15                 16754                       # What write queue length does an incoming req see
system.mem_ctrls1.wrQLenPdf::16                 17166                       # What write queue length does an incoming req see
system.mem_ctrls1.wrQLenPdf::17                363203                       # What write queue length does an incoming req see
system.mem_ctrls1.wrQLenPdf::18                365717                       # What write queue length does an incoming req see
system.mem_ctrls1.wrQLenPdf::19                365877                       # What write queue length does an incoming req see
system.mem_ctrls1.wrQLenPdf::20                365813                       # What write queue length does an incoming req see
system.mem_ctrls1.wrQLenPdf::21                365745                       # What write queue length does an incoming req see
system.mem_ctrls1.wrQLenPdf::22                365848                       # What write queue length does an incoming req see
system.mem_ctrls1.wrQLenPdf::23                366125                       # What write queue length does an incoming req see
system.mem_ctrls1.wrQLenPdf::24                365822                       # What write queue length does an incoming req see
system.mem_ctrls1.wrQLenPdf::25                365738                       # What write queue length does an incoming req see
system.mem_ctrls1.wrQLenPdf::26                365641                       # What write queue length does an incoming req see
system.mem_ctrls1.wrQLenPdf::27                365511                       # What write queue length does an incoming req see
system.mem_ctrls1.wrQLenPdf::28                365497                       # What write queue length does an incoming req see
system.mem_ctrls1.wrQLenPdf::29                365498                       # What write queue length does an incoming req see
system.mem_ctrls1.wrQLenPdf::30                365492                       # What write queue length does an incoming req see
system.mem_ctrls1.wrQLenPdf::31                365491                       # What write queue length does an incoming req see
system.mem_ctrls1.wrQLenPdf::32                365491                       # What write queue length does an incoming req see
system.mem_ctrls1.wrQLenPdf::33                    60                       # What write queue length does an incoming req see
system.mem_ctrls1.wrQLenPdf::34                     3                       # What write queue length does an incoming req see
system.mem_ctrls1.wrQLenPdf::35                     0                       # What write queue length does an incoming req see
system.mem_ctrls1.wrQLenPdf::36                     0                       # What write queue length does an incoming req see
system.mem_ctrls1.wrQLenPdf::37                     0                       # What write queue length does an incoming req see
system.mem_ctrls1.wrQLenPdf::38                     0                       # What write queue length does an incoming req see
system.mem_ctrls1.wrQLenPdf::39                     0                       # What write queue length does an incoming req see
system.mem_ctrls1.wrQLenPdf::40                     0                       # What write queue length does an incoming req see
system.mem_ctrls1.wrQLenPdf::41                     0                       # What write queue length does an incoming req see
system.mem_ctrls1.wrQLenPdf::42                     0                       # What write queue length does an incoming req see
system.mem_ctrls1.wrQLenPdf::43                     0                       # What write queue length does an incoming req see
system.mem_ctrls1.wrQLenPdf::44                     0                       # What write queue length does an incoming req see
system.mem_ctrls1.wrQLenPdf::45                     0                       # What write queue length does an incoming req see
system.mem_ctrls1.wrQLenPdf::46                     0                       # What write queue length does an incoming req see
system.mem_ctrls1.wrQLenPdf::47                     0                       # What write queue length does an incoming req see
system.mem_ctrls1.wrQLenPdf::48                     0                       # What write queue length does an incoming req see
system.mem_ctrls1.wrQLenPdf::49                     0                       # What write queue length does an incoming req see
system.mem_ctrls1.wrQLenPdf::50                     0                       # What write queue length does an incoming req see
system.mem_ctrls1.wrQLenPdf::51                     0                       # What write queue length does an incoming req see
system.mem_ctrls1.wrQLenPdf::52                     0                       # What write queue length does an incoming req see
system.mem_ctrls1.wrQLenPdf::53                     0                       # What write queue length does an incoming req see
system.mem_ctrls1.wrQLenPdf::54                     0                       # What write queue length does an incoming req see
system.mem_ctrls1.wrQLenPdf::55                     0                       # What write queue length does an incoming req see
system.mem_ctrls1.wrQLenPdf::56                     0                       # What write queue length does an incoming req see
system.mem_ctrls1.wrQLenPdf::57                     0                       # What write queue length does an incoming req see
system.mem_ctrls1.wrQLenPdf::58                     0                       # What write queue length does an incoming req see
system.mem_ctrls1.wrQLenPdf::59                     0                       # What write queue length does an incoming req see
system.mem_ctrls1.wrQLenPdf::60                     0                       # What write queue length does an incoming req see
system.mem_ctrls1.wrQLenPdf::61                     0                       # What write queue length does an incoming req see
system.mem_ctrls1.wrQLenPdf::62                     0                       # What write queue length does an incoming req see
system.mem_ctrls1.wrQLenPdf::63                     0                       # What write queue length does an incoming req see
system.mem_ctrls1.bytesPerActivate::samples      7365836                       # Bytes accessed per row activation
system.mem_ctrls1.bytesPerActivate::mean   100.444710                       # Bytes accessed per row activation
system.mem_ctrls1.bytesPerActivate::gmean    80.987751                       # Bytes accessed per row activation
system.mem_ctrls1.bytesPerActivate::stdev   111.001312                       # Bytes accessed per row activation
system.mem_ctrls1.bytesPerActivate::0-127      5832766     79.19%     79.19% # Bytes accessed per row activation
system.mem_ctrls1.bytesPerActivate::128-255      1046336     14.21%     93.39% # Bytes accessed per row activation
system.mem_ctrls1.bytesPerActivate::256-383       251387      3.41%     96.80% # Bytes accessed per row activation
system.mem_ctrls1.bytesPerActivate::384-511        98934      1.34%     98.15% # Bytes accessed per row activation
system.mem_ctrls1.bytesPerActivate::512-639        45119      0.61%     98.76% # Bytes accessed per row activation
system.mem_ctrls1.bytesPerActivate::640-767        24943      0.34%     99.10% # Bytes accessed per row activation
system.mem_ctrls1.bytesPerActivate::768-895        18413      0.25%     99.35% # Bytes accessed per row activation
system.mem_ctrls1.bytesPerActivate::896-1023        25392      0.34%     99.69% # Bytes accessed per row activation
system.mem_ctrls1.bytesPerActivate::1024-1151        22546      0.31%    100.00% # Bytes accessed per row activation
system.mem_ctrls1.bytesPerActivate::total      7365836                       # Bytes accessed per row activation
system.mem_ctrls1.rdPerTurnAround::samples       365491                       # Reads before turning the bus around for writes
system.mem_ctrls1.rdPerTurnAround::mean     15.534744                       # Reads before turning the bus around for writes
system.mem_ctrls1.rdPerTurnAround::gmean    15.458951                       # Reads before turning the bus around for writes
system.mem_ctrls1.rdPerTurnAround::stdev     1.552705                       # Reads before turning the bus around for writes
system.mem_ctrls1.rdPerTurnAround::0-1              1      0.00%      0.00% # Reads before turning the bus around for writes
system.mem_ctrls1.rdPerTurnAround::2-3             11      0.00%      0.00% # Reads before turning the bus around for writes
system.mem_ctrls1.rdPerTurnAround::4-5            348      0.10%      0.10% # Reads before turning the bus around for writes
system.mem_ctrls1.rdPerTurnAround::6-7           1121      0.31%      0.41% # Reads before turning the bus around for writes
system.mem_ctrls1.rdPerTurnAround::8-9            967      0.26%      0.67% # Reads before turning the bus around for writes
system.mem_ctrls1.rdPerTurnAround::10-11         2136      0.58%      1.25% # Reads before turning the bus around for writes
system.mem_ctrls1.rdPerTurnAround::12-13         8500      2.33%      3.58% # Reads before turning the bus around for writes
system.mem_ctrls1.rdPerTurnAround::14-15       120177     32.88%     36.46% # Reads before turning the bus around for writes
system.mem_ctrls1.rdPerTurnAround::16-17       229443     62.78%     99.24% # Reads before turning the bus around for writes
system.mem_ctrls1.rdPerTurnAround::18-19         1011      0.28%     99.51% # Reads before turning the bus around for writes
system.mem_ctrls1.rdPerTurnAround::20-21          285      0.08%     99.59% # Reads before turning the bus around for writes
system.mem_ctrls1.rdPerTurnAround::22-23          196      0.05%     99.65% # Reads before turning the bus around for writes
system.mem_ctrls1.rdPerTurnAround::24-25          171      0.05%     99.69% # Reads before turning the bus around for writes
system.mem_ctrls1.rdPerTurnAround::26-27          305      0.08%     99.78% # Reads before turning the bus around for writes
system.mem_ctrls1.rdPerTurnAround::28-29          196      0.05%     99.83% # Reads before turning the bus around for writes
system.mem_ctrls1.rdPerTurnAround::30-31          180      0.05%     99.88% # Reads before turning the bus around for writes
system.mem_ctrls1.rdPerTurnAround::32-33           96      0.03%     99.91% # Reads before turning the bus around for writes
system.mem_ctrls1.rdPerTurnAround::34-35           61      0.02%     99.92% # Reads before turning the bus around for writes
system.mem_ctrls1.rdPerTurnAround::36-37           40      0.01%     99.93% # Reads before turning the bus around for writes
system.mem_ctrls1.rdPerTurnAround::38-39           32      0.01%     99.94% # Reads before turning the bus around for writes
system.mem_ctrls1.rdPerTurnAround::40-41           41      0.01%     99.95% # Reads before turning the bus around for writes
system.mem_ctrls1.rdPerTurnAround::42-43           25      0.01%     99.96% # Reads before turning the bus around for writes
system.mem_ctrls1.rdPerTurnAround::44-45           69      0.02%     99.98% # Reads before turning the bus around for writes
system.mem_ctrls1.rdPerTurnAround::46-47           58      0.02%     99.99% # Reads before turning the bus around for writes
system.mem_ctrls1.rdPerTurnAround::48-49           13      0.00%    100.00% # Reads before turning the bus around for writes
system.mem_ctrls1.rdPerTurnAround::50-51            3      0.00%    100.00% # Reads before turning the bus around for writes
system.mem_ctrls1.rdPerTurnAround::52-53            2      0.00%    100.00% # Reads before turning the bus around for writes
system.mem_ctrls1.rdPerTurnAround::54-55            1      0.00%    100.00% # Reads before turning the bus around for writes
system.mem_ctrls1.rdPerTurnAround::60-61            1      0.00%    100.00% # Reads before turning the bus around for writes
system.mem_ctrls1.rdPerTurnAround::62-63            1      0.00%    100.00% # Reads before turning the bus around for writes
system.mem_ctrls1.rdPerTurnAround::total       365491                       # Reads before turning the bus around for writes
system.mem_ctrls1.wrPerTurnAround::samples       365491                       # Writes before turning the bus around for reads
system.mem_ctrls1.wrPerTurnAround::mean     16.094774                       # Writes before turning the bus around for reads
system.mem_ctrls1.wrPerTurnAround::gmean    16.089467                       # Writes before turning the bus around for reads
system.mem_ctrls1.wrPerTurnAround::stdev     0.428863                       # Writes before turning the bus around for reads
system.mem_ctrls1.wrPerTurnAround::16          348289     95.29%     95.29% # Writes before turning the bus around for reads
system.mem_ctrls1.wrPerTurnAround::17             241      0.07%     95.36% # Writes before turning the bus around for reads
system.mem_ctrls1.wrPerTurnAround::18           16503      4.52%     99.87% # Writes before turning the bus around for reads
system.mem_ctrls1.wrPerTurnAround::19             442      0.12%    100.00% # Writes before turning the bus around for reads
system.mem_ctrls1.wrPerTurnAround::20              14      0.00%    100.00% # Writes before turning the bus around for reads
system.mem_ctrls1.wrPerTurnAround::21               2      0.00%    100.00% # Writes before turning the bus around for reads
system.mem_ctrls1.wrPerTurnAround::total       365491                       # Writes before turning the bus around for reads
system.mem_ctrls1.totQLat                131963709480                       # Total ticks spent queuing
system.mem_ctrls1.totMemAccLat           238422571980                       # Total ticks spent from burst creation until serviced by the DRAM
system.mem_ctrls1.totBusLat               28389030000                       # Total ticks spent in databus transfers
system.mem_ctrls1.avgQLat                    23242.03                       # Average queueing delay per DRAM burst
system.mem_ctrls1.avgBusLat                   5000.00                       # Average bus latency per DRAM burst
system.mem_ctrls1.avgMemAccLat               41992.03                       # Average memory access latency per DRAM burst
system.mem_ctrls1.avgRdBW                      125.80                       # Average DRAM read bandwidth in MiByte/s
system.mem_ctrls1.avgWrBW                      130.34                       # Average achieved write bandwidth in MiByte/s
system.mem_ctrls1.avgRdBWSys                   130.65                       # Average system read bandwidth in MiByte/s
system.mem_ctrls1.avgWrBWSys                   130.65                       # Average system write bandwidth in MiByte/s
system.mem_ctrls1.peakBW                     12800.00                       # Theoretical peak bandwidth in MiByte/s
system.mem_ctrls1.busUtil                        2.00                       # Data bus utilization in percentage
system.mem_ctrls1.busUtilRead                    0.98                       # Data bus utilization in percentage for reads
system.mem_ctrls1.busUtilWrite                   1.02                       # Data bus utilization in percentage for writes
system.mem_ctrls1.avgRdQLen                      1.00                       # Average read queue length when enqueuing
system.mem_ctrls1.avgWrQLen                     25.75                       # Average write queue length when enqueuing
system.mem_ctrls1.readRowHits                 1394263                       # Number of row buffer hits during reads
system.mem_ctrls1.writeRowHits                2800201                       # Number of row buffer hits during writes
system.mem_ctrls1.readRowHitRate                24.56                       # Row buffer hit rate for reads
system.mem_ctrls1.writeRowHitRate               47.60                       # Row buffer hit rate for writes
system.mem_ctrls1.avgGap                    244936.04                       # Average gap between requests
system.mem_ctrls1.pageHitRate                   36.28                       # Row buffer hit rate, read and write combined
system.mem_ctrls1_0.actEnergy             29505372120                       # Energy for activate commands per rank (pJ)
system.mem_ctrls1_0.preEnergy             16099161375                       # Energy for precharge commands per rank (pJ)
system.mem_ctrls1_0.readEnergy            23867212200                       # Energy for read commands per rank (pJ)
system.mem_ctrls1_0.writeEnergy           20492358480                       # Energy for write commands per rank (pJ)
system.mem_ctrls1_0.refreshEnergy        188980387440                       # Energy for refresh commands per rank (pJ)
system.mem_ctrls1_0.actBackEnergy        1304267272290                       # Energy for active background per rank (pJ)
system.mem_ctrls1_0.preBackEnergy        591923685750                       # Energy for precharge background per rank (pJ)
system.mem_ctrls1_0.totalEnergy          2175135449655                       # Total energy per rank (pJ)
system.mem_ctrls1_0.averagePower           751.767224                       # Core power per rank (mW)
system.mem_ctrls1_0.memoryStateTime::IDLE 976207643250                       # Time in different power states
system.mem_ctrls1_0.memoryStateTime::REF  96453500000                       # Time in different power states
system.mem_ctrls1_0.memoryStateTime::PRE_PDN            0                       # Time in different power states
system.mem_ctrls1_0.memoryStateTime::ACT 1815841517000                       # Time in different power states
system.mem_ctrls1_0.memoryStateTime::ACT_PDN            0                       # Time in different power states
system.mem_ctrls1_1.actEnergy             26257777560                       # Energy for activate commands per rank (pJ)
system.mem_ctrls1_1.preEnergy             14327160375                       # Energy for precharge commands per rank (pJ)
system.mem_ctrls1_1.readEnergy            20495919600                       # Energy for read commands per rank (pJ)
system.mem_ctrls1_1.writeEnergy           17690050080                       # Energy for write commands per rank (pJ)
system.mem_ctrls1_1.refreshEnergy        188980387440                       # Energy for refresh commands per rank (pJ)
system.mem_ctrls1_1.actBackEnergy        1289011325175                       # Energy for active background per rank (pJ)
system.mem_ctrls1_1.preBackEnergy        605306095500                       # Energy for precharge background per rank (pJ)
system.mem_ctrls1_1.totalEnergy          2162068715730                       # Total energy per rank (pJ)
system.mem_ctrls1_1.averagePower           747.251118                       # Core power per rank (mW)
system.mem_ctrls1_1.memoryStateTime::IDLE 998722068251                       # Time in different power states
system.mem_ctrls1_1.memoryStateTime::REF  96453500000                       # Time in different power states
system.mem_ctrls1_1.memoryStateTime::PRE_PDN            0                       # Time in different power states
system.mem_ctrls1_1.memoryStateTime::ACT 1793328623249                       # Time in different power states
system.mem_ctrls1_1.memoryStateTime::ACT_PDN            0                       # Time in different power states
system.mem_ctrls2.bytes_read::ruby.dir_cntrl2    378626560                       # Number of bytes read from this memory
system.mem_ctrls2.bytes_read::total         378626560                       # Number of bytes read from this memory
system.mem_ctrls2.bytes_written::ruby.dir_cntrl2    378629696                       # Number of bytes written to this memory
system.mem_ctrls2.bytes_written::total      378629696                       # Number of bytes written to this memory
system.mem_ctrls2.num_reads::ruby.dir_cntrl2      5916040                       # Number of read requests responded to by this memory
system.mem_ctrls2.num_reads::total            5916040                       # Number of read requests responded to by this memory
system.mem_ctrls2.num_writes::ruby.dir_cntrl2      5916089                       # Number of write requests responded to by this memory
system.mem_ctrls2.num_writes::total           5916089                       # Number of write requests responded to by this memory
system.mem_ctrls2.bw_read::ruby.dir_cntrl2    131080568                       # Total read bandwidth from this memory (bytes/s)
system.mem_ctrls2.bw_read::total            131080568                       # Total read bandwidth from this memory (bytes/s)
system.mem_ctrls2.bw_write::ruby.dir_cntrl2    131081654                       # Write bandwidth from this memory (bytes/s)
system.mem_ctrls2.bw_write::total           131081654                       # Write bandwidth from this memory (bytes/s)
system.mem_ctrls2.bw_total::ruby.dir_cntrl2    262162222                       # Total bandwidth to/from this memory (bytes/s)
system.mem_ctrls2.bw_total::total           262162222                       # Total bandwidth to/from this memory (bytes/s)
system.mem_ctrls2.readReqs                    5916040                       # Number of read requests accepted
system.mem_ctrls2.writeReqs                   5916089                       # Number of write requests accepted
system.mem_ctrls2.readBursts                  5916040                       # Number of DRAM read bursts, including those serviced by the write queue
system.mem_ctrls2.writeBursts                 5916089                       # Number of DRAM write bursts, including those merged in the write queue
system.mem_ctrls2.bytesReadDRAM             364144256                       # Total number of bytes read from DRAM
system.mem_ctrls2.bytesReadWrQ               14482304                       # Total number of bytes read from write queue
system.mem_ctrls2.bytesWritten              377599936                       # Total number of bytes written to DRAM
system.mem_ctrls2.bytesReadSys              378626560                       # Total read bytes from the system interface side
system.mem_ctrls2.bytesWrittenSys           378629696                       # Total written bytes from the system interface side
system.mem_ctrls2.servicedByWrQ                226286                       # Number of DRAM read bursts serviced by the write queue
system.mem_ctrls2.mergedWrBursts                16095                       # Number of DRAM write bursts merged with an existing one
system.mem_ctrls2.neitherReadNorWriteReqs            0                       # Number of requests that are neither read nor write
system.mem_ctrls2.perBankRdBursts::0           624247                       # Per bank write bursts
system.mem_ctrls2.perBankRdBursts::1           343387                       # Per bank write bursts
system.mem_ctrls2.perBankRdBursts::2           261104                       # Per bank write bursts
system.mem_ctrls2.perBankRdBursts::3           198461                       # Per bank write bursts
system.mem_ctrls2.perBankRdBursts::4           249527                       # Per bank write bursts
system.mem_ctrls2.perBankRdBursts::5           258700                       # Per bank write bursts
system.mem_ctrls2.perBankRdBursts::6           474545                       # Per bank write bursts
system.mem_ctrls2.perBankRdBursts::7           654835                       # Per bank write bursts
system.mem_ctrls2.perBankRdBursts::8           267804                       # Per bank write bursts
system.mem_ctrls2.perBankRdBursts::9           250689                       # Per bank write bursts
system.mem_ctrls2.perBankRdBursts::10          292828                       # Per bank write bursts
system.mem_ctrls2.perBankRdBursts::11          207274                       # Per bank write bursts
system.mem_ctrls2.perBankRdBursts::12          265836                       # Per bank write bursts
system.mem_ctrls2.perBankRdBursts::13          253150                       # Per bank write bursts
system.mem_ctrls2.perBankRdBursts::14          238453                       # Per bank write bursts
system.mem_ctrls2.perBankRdBursts::15          848914                       # Per bank write bursts
system.mem_ctrls2.perBankWrBursts::0           650234                       # Per bank write bursts
system.mem_ctrls2.perBankWrBursts::1           363824                       # Per bank write bursts
system.mem_ctrls2.perBankWrBursts::2           266177                       # Per bank write bursts
system.mem_ctrls2.perBankWrBursts::3           199914                       # Per bank write bursts
system.mem_ctrls2.perBankWrBursts::4           255681                       # Per bank write bursts
system.mem_ctrls2.perBankWrBursts::5           266823                       # Per bank write bursts
system.mem_ctrls2.perBankWrBursts::6           491566                       # Per bank write bursts
system.mem_ctrls2.perBankWrBursts::7           675649                       # Per bank write bursts
system.mem_ctrls2.perBankWrBursts::8           277289                       # Per bank write bursts
system.mem_ctrls2.perBankWrBursts::9           253893                       # Per bank write bursts
system.mem_ctrls2.perBankWrBursts::10          298047                       # Per bank write bursts
system.mem_ctrls2.perBankWrBursts::11          209865                       # Per bank write bursts
system.mem_ctrls2.perBankWrBursts::12          287491                       # Per bank write bursts
system.mem_ctrls2.perBankWrBursts::13          258982                       # Per bank write bursts
system.mem_ctrls2.perBankWrBursts::14          241708                       # Per bank write bursts
system.mem_ctrls2.perBankWrBursts::15          902856                       # Per bank write bursts
system.mem_ctrls2.numRdRetry                        0                       # Number of times read queue was full causing retry
system.mem_ctrls2.numWrRetry                        0                       # Number of times write queue was full causing retry
system.mem_ctrls2.totGap                 2888502622500                       # Total gap between requests
system.mem_ctrls2.readPktSize::0                    0                       # Read request sizes (log2)
system.mem_ctrls2.readPktSize::1                    0                       # Read request sizes (log2)
system.mem_ctrls2.readPktSize::2                    0                       # Read request sizes (log2)
system.mem_ctrls2.readPktSize::3                    0                       # Read request sizes (log2)
system.mem_ctrls2.readPktSize::4                    0                       # Read request sizes (log2)
system.mem_ctrls2.readPktSize::5                    0                       # Read request sizes (log2)
system.mem_ctrls2.readPktSize::6              5916040                       # Read request sizes (log2)
system.mem_ctrls2.writePktSize::0                   0                       # Write request sizes (log2)
system.mem_ctrls2.writePktSize::1                   0                       # Write request sizes (log2)
system.mem_ctrls2.writePktSize::2                   0                       # Write request sizes (log2)
system.mem_ctrls2.writePktSize::3                   0                       # Write request sizes (log2)
system.mem_ctrls2.writePktSize::4                   0                       # Write request sizes (log2)
system.mem_ctrls2.writePktSize::5                   0                       # Write request sizes (log2)
system.mem_ctrls2.writePktSize::6             5916089                       # Write request sizes (log2)
system.mem_ctrls2.rdQLenPdf::0                5683105                       # What read queue length does an incoming req see
system.mem_ctrls2.rdQLenPdf::1                   6649                       # What read queue length does an incoming req see
system.mem_ctrls2.rdQLenPdf::2                      0                       # What read queue length does an incoming req see
system.mem_ctrls2.rdQLenPdf::3                      0                       # What read queue length does an incoming req see
system.mem_ctrls2.rdQLenPdf::4                      0                       # What read queue length does an incoming req see
system.mem_ctrls2.rdQLenPdf::5                      0                       # What read queue length does an incoming req see
system.mem_ctrls2.rdQLenPdf::6                      0                       # What read queue length does an incoming req see
system.mem_ctrls2.rdQLenPdf::7                      0                       # What read queue length does an incoming req see
system.mem_ctrls2.rdQLenPdf::8                      0                       # What read queue length does an incoming req see
system.mem_ctrls2.rdQLenPdf::9                      0                       # What read queue length does an incoming req see
system.mem_ctrls2.rdQLenPdf::10                     0                       # What read queue length does an incoming req see
system.mem_ctrls2.rdQLenPdf::11                     0                       # What read queue length does an incoming req see
system.mem_ctrls2.rdQLenPdf::12                     0                       # What read queue length does an incoming req see
system.mem_ctrls2.rdQLenPdf::13                     0                       # What read queue length does an incoming req see
system.mem_ctrls2.rdQLenPdf::14                     0                       # What read queue length does an incoming req see
system.mem_ctrls2.rdQLenPdf::15                     0                       # What read queue length does an incoming req see
system.mem_ctrls2.rdQLenPdf::16                     0                       # What read queue length does an incoming req see
system.mem_ctrls2.rdQLenPdf::17                     0                       # What read queue length does an incoming req see
system.mem_ctrls2.rdQLenPdf::18                     0                       # What read queue length does an incoming req see
system.mem_ctrls2.rdQLenPdf::19                     0                       # What read queue length does an incoming req see
system.mem_ctrls2.rdQLenPdf::20                     0                       # What read queue length does an incoming req see
system.mem_ctrls2.rdQLenPdf::21                     0                       # What read queue length does an incoming req see
[...]
system.ruby.IFETCH.L1Cache.miss_type_mach_latency_hist_seqr::total       885077                      
system.ruby.IFETCH.Directory.miss_type_mach_latency_hist_seqr::bucket_size          128                      
system.ruby.IFETCH.Directory.miss_type_mach_latency_hist_seqr::max_bucket         1279                      
system.ruby.IFETCH.Directory.miss_type_mach_latency_hist_seqr::samples       912625                      
system.ruby.IFETCH.Directory.miss_type_mach_latency_hist_seqr::mean   122.751327                      
system.ruby.IFETCH.Directory.miss_type_mach_latency_hist_seqr::gmean   108.064158                      
system.ruby.IFETCH.Directory.miss_type_mach_latency_hist_seqr::stdev    73.742639                      
system.ruby.IFETCH.Directory.miss_type_mach_latency_hist_seqr |      713743     78.21%     78.21% |      152046     16.66%     94.87% |       34751      3.81%     98.68% |        4113      0.45%     99.13% |        5936      0.65%     99.78% |        1674      0.18%     99.96% |         152      0.02%     99.98% |         204      0.02%    100.00% |           6      0.00%    100.00% |           0      0.00%    100.00%
system.ruby.IFETCH.Directory.miss_type_mach_latency_hist_seqr::total       912625                      
system.ruby.RMW_Read.L1Cache.miss_type_mach_latency_hist_seqr::bucket_size            8                      
system.ruby.RMW_Read.L1Cache.miss_type_mach_latency_hist_seqr::max_bucket           79                      
system.ruby.RMW_Read.L1Cache.miss_type_mach_latency_hist_seqr::samples         1959                      
system.ruby.RMW_Read.L1Cache.miss_type_mach_latency_hist_seqr::mean    45.189893                      
system.ruby.RMW_Read.L1Cache.miss_type_mach_latency_hist_seqr::gmean    45.182432                      
system.ruby.RMW_Read.L1Cache.miss_type_mach_latency_hist_seqr::stdev     0.845996                      
system.ruby.RMW_Read.L1Cache.miss_type_mach_latency_hist_seqr |           0      0.00%      0.00% |           0      0.00%      0.00% |           0      0.00%      0.00% |           0      0.00%      0.00% |           0      0.00%      0.00% |        1882     96.07%     96.07% |          77      3.93%    100.00% |           0      0.00%    100.00% |           0      0.00%    100.00% |           0      0.00%    100.00%
system.ruby.RMW_Read.L1Cache.miss_type_mach_latency_hist_seqr::total         1959                      
system.ruby.RMW_Read.Directory.miss_type_mach_latency_hist_seqr::bucket_size          128                      
system.ruby.RMW_Read.Directory.miss_type_mach_latency_hist_seqr::max_bucket         1279                      
system.ruby.RMW_Read.Directory.miss_type_mach_latency_hist_seqr::samples       529291                      
system.ruby.RMW_Read.Directory.miss_type_mach_latency_hist_seqr::mean    85.605950                      
system.ruby.RMW_Read.Directory.miss_type_mach_latency_hist_seqr::gmean    70.771297                      
system.ruby.RMW_Read.Directory.miss_type_mach_latency_hist_seqr::stdev    65.884390                      
system.ruby.RMW_Read.Directory.miss_type_mach_latency_hist_seqr |      491152     92.79%     92.79% |       20828      3.94%     96.73% |       13779      2.60%     99.33% |        1012      0.19%     99.52% |        1848      0.35%     99.87% |         556      0.11%     99.98% |          64      0.01%     99.99% |          50      0.01%    100.00% |           2      0.00%    100.00% |           0      0.00%    100.00%
system.ruby.RMW_Read.Directory.miss_type_mach_latency_hist_seqr::total       529291                      
system.ruby.Locked_RMW_Read.L1Cache.miss_type_mach_latency_hist_seqr::bucket_size            8                      
system.ruby.Locked_RMW_Read.L1Cache.miss_type_mach_latency_hist_seqr::max_bucket           79                      
system.ruby.Locked_RMW_Read.L1Cache.miss_type_mach_latency_hist_seqr::samples         4113                      
system.ruby.Locked_RMW_Read.L1Cache.miss_type_mach_latency_hist_seqr::mean    46.740822                      
system.ruby.Locked_RMW_Read.L1Cache.miss_type_mach_latency_hist_seqr::gmean    46.698552                      
system.ruby.Locked_RMW_Read.L1Cache.miss_type_mach_latency_hist_seqr::stdev     1.996453                      
system.ruby.Locked_RMW_Read.L1Cache.miss_type_mach_latency_hist_seqr |           0      0.00%      0.00% |           0      0.00%      0.00% |           0      0.00%      0.00% |           0      0.00%      0.00% |           0      0.00%      0.00% |        2333     56.72%     56.72% |        1779     43.25%     99.98% |           1      0.02%    100.00% |           0      0.00%    100.00% |           0      0.00%    100.00%
system.ruby.Locked_RMW_Read.L1Cache.miss_type_mach_latency_hist_seqr::total         4113                      
system.ruby.Locked_RMW_Read.Directory.miss_type_mach_latency_hist_seqr::bucket_size          128                      
system.ruby.Locked_RMW_Read.Directory.miss_type_mach_latency_hist_seqr::max_bucket         1279                      
system.ruby.Locked_RMW_Read.Directory.miss_type_mach_latency_hist_seqr::samples        39704                      
system.ruby.Locked_RMW_Read.Directory.miss_type_mach_latency_hist_seqr::mean   139.548056                      
system.ruby.Locked_RMW_Read.Directory.miss_type_mach_latency_hist_seqr::gmean   127.032178                      
system.ruby.Locked_RMW_Read.Directory.miss_type_mach_latency_hist_seqr::stdev    76.138605                      
system.ruby.Locked_RMW_Read.Directory.miss_type_mach_latency_hist_seqr |       29915     75.35%     75.35% |        6771     17.05%     92.40% |        2293      5.78%     98.17% |         288      0.73%     98.90% |         329      0.83%     99.73% |          90      0.23%     99.95% |           9      0.02%     99.98% |           9      0.02%    100.00% |           0      0.00%    100.00% |           0      0.00%    100.00%
system.ruby.Locked_RMW_Read.Directory.miss_type_mach_latency_hist_seqr::total        39704                      
system.ruby.Directory_Controller.GETX    |     6222992     25.30%     25.30% |     6107980     24.83%     50.14% |     6124865     24.90%     75.04% |     6139054     24.96%    100.00%
system.ruby.Directory_Controller.GETX::total     24594891                      
system.ruby.Directory_Controller.PUTX    |     6082996     25.33%     25.33% |     5962190     24.83%     50.16% |     5982339     24.91%     75.07% |     5987170     24.93%    100.00%
system.ruby.Directory_Controller.PUTX::total     24014695                      
system.ruby.Directory_Controller.PUTX_NotOwner |           0      0.00%      0.00% |           0      0.00%      0.00% |           2     66.67%     66.67% |           1     33.33%    100.00%
system.ruby.Directory_Controller.PUTX_NotOwner::total            3                      
system.ruby.Directory_Controller.DMA_READ |           2    100.00%    100.00% |           0      0.00%    100.00% |           0      0.00%    100.00% |           0      0.00%    100.00%
system.ruby.Directory_Controller.DMA_READ::total            2                      
system.ruby.Directory_Controller.DMA_WRITE |          32     25.00%     25.00% |          32     25.00%     50.00% |          32     25.00%     75.00% |          32     25.00%    100.00%
system.ruby.Directory_Controller.DMA_WRITE::total          128                      
system.ruby.Directory_Controller.Memory_Data |     6082977     25.33%     25.33% |     5962151     24.83%     50.16% |     5982299     24.91%     75.07% |     5987138     24.93%    100.00%
system.ruby.Directory_Controller.Memory_Data::total     24014565                      
system.ruby.Directory_Controller.Memory_Ack |     6083028     25.33%     25.33% |     5962222     24.83%     50.16% |     5982371     24.91%     75.07% |     5987202     24.93%    100.00%
system.ruby.Directory_Controller.Memory_Ack::total     24014823                      
system.ruby.Directory_Controller.I.GETX  |     6082977     25.33%     25.33% |     5962151     24.83%     50.16% |     5982299     24.91%     75.07% |     5987138     24.93%    100.00%
system.ruby.Directory_Controller.I.GETX::total     24014565                      
system.ruby.Directory_Controller.I.DMA_WRITE |          32     25.00%     25.00% |          32     25.00%     50.00% |          32     25.00%     75.00% |          32     25.00%    100.00%
system.ruby.Directory_Controller.I.DMA_WRITE::total          128                      
system.ruby.Directory_Controller.M.GETX  |      139978     24.13%     24.13% |      145810     25.13%     49.26% |      142512     24.56%     73.82% |      151894     26.18%    100.00%
system.ruby.Directory_Controller.M.GETX::total       580194                      
system.ruby.Directory_Controller.M.PUTX  |     6082994     25.33%     25.33% |     5962190     24.83%     50.16% |     5982339     24.91%     75.07% |     5987170     24.93%    100.00%
system.ruby.Directory_Controller.M.PUTX::total     24014693                      
system.ruby.Directory_Controller.M.PUTX_NotOwner |           0      0.00%      0.00% |           0      0.00%      0.00% |           2     66.67%     66.67% |           1     33.33%    100.00%
system.ruby.Directory_Controller.M.PUTX_NotOwner::total            3                      
system.ruby.Directory_Controller.M.DMA_READ |           2    100.00%    100.00% |           0      0.00%    100.00% |           0      0.00%    100.00% |           0      0.00%    100.00%
system.ruby.Directory_Controller.M.DMA_READ::total            2                      
system.ruby.Directory_Controller.M_DRD.PUTX |           2    100.00%    100.00% |           0      0.00%    100.00% |           0      0.00%    100.00% |           0      0.00%    100.00%
system.ruby.Directory_Controller.M_DRD.PUTX::total            2                      
system.ruby.Directory_Controller.M_DRDI.Memory_Ack |           2    100.00%    100.00% |           0      0.00%    100.00% |           0      0.00%    100.00% |           0      0.00%    100.00%
system.ruby.Directory_Controller.M_DRDI.Memory_Ack::total            2                      
system.ruby.Directory_Controller.IM.GETX |          34     27.42%     27.42% |          17     13.71%     41.13% |          51     41.13%     82.26% |          22     17.74%    100.00%
system.ruby.Directory_Controller.IM.GETX::total          124                      
system.ruby.Directory_Controller.IM.Memory_Data |     6082977     25.33%     25.33% |     5962151     24.83%     50.16% |     5982299     24.91%     75.07% |     5987138     24.93%    100.00%
system.ruby.Directory_Controller.IM.Memory_Data::total     24014565                      
system.ruby.Directory_Controller.MI.GETX |           3     37.50%     37.50% |           2     25.00%     62.50% |           3     37.50%    100.00% |           0      0.00%    100.00%
system.ruby.Directory_Controller.MI.GETX::total            8                      
system.ruby.Directory_Controller.MI.Memory_Ack |     6082994     25.33%     25.33% |     5962190     24.83%     50.16% |     5982339     24.91%     75.07% |     5987170     24.93%    100.00%
system.ruby.Directory_Controller.MI.Memory_Ack::total     24014693                      
system.ruby.Directory_Controller.ID_W.Memory_Ack |          32     25.00%     25.00% |          32     25.00%     50.00% |          32     25.00%     75.00% |          32     25.00%    100.00%
system.ruby.Directory_Controller.ID_W.Memory_Ack::total          128                      
system.ruby.DMA_Controller.ReadRequest   |           2    100.00%    100.00% |           0      0.00%    100.00%
system.ruby.DMA_Controller.ReadRequest::total            2                      
system.ruby.DMA_Controller.WriteRequest  |         128    100.00%    100.00% |           0      0.00%    100.00%
system.ruby.DMA_Controller.WriteRequest::total          128                      
system.ruby.DMA_Controller.Data          |           2    100.00%    100.00% |           0      0.00%    100.00%
system.ruby.DMA_Controller.Data::total              2                      
system.ruby.DMA_Controller.Ack           |         128    100.00%    100.00% |           0      0.00%    100.00%
system.ruby.DMA_Controller.Ack::total             128                      
system.ruby.DMA_Controller.READY.ReadRequest |           2    100.00%    100.00% |           0      0.00%    100.00%
system.ruby.DMA_Controller.READY.ReadRequest::total            2                      
system.ruby.DMA_Controller.READY.WriteRequest |         128    100.00%    100.00% |           0      0.00%    100.00%
system.ruby.DMA_Controller.READY.WriteRequest::total          128                      
system.ruby.DMA_Controller.BUSY_RD.Data  |           2    100.00%    100.00% |           0      0.00%    100.00%
system.ruby.DMA_Controller.BUSY_RD.Data::total            2                      
system.ruby.DMA_Controller.BUSY_WR.Ack   |         128    100.00%    100.00% |           0      0.00%    100.00%
system.ruby.DMA_Controller.BUSY_WR.Ack::total          128                      
system.ruby.L1Cache_Controller.Load      |     1211924      1.31%      1.31% |     3383490      3.64%      4.95% |      813168      0.88%      5.82% |    87456005     94.18%    100.00%
system.ruby.L1Cache_Controller.Load::total     92864587                      
system.ruby.L1Cache_Controller.Ifetch    |     5876353      0.54%      0.54% |    20001483      1.85%      2.39% |     3668727      0.34%      2.73% |  1052130398     97.27%    100.00%
system.ruby.L1Cache_Controller.Ifetch::total   1081676961                      
system.ruby.L1Cache_Controller.Store     |      965837      1.15%      1.15% |     2588619      3.07%      4.22% |      585499      0.69%      4.91% |    80153859     95.09%    100.00%
system.ruby.L1Cache_Controller.Store::total     84293814                      
system.ruby.L1Cache_Controller.Data      |      276659      1.12%      1.12% |      411242      1.67%      2.80% |      225485      0.92%      3.71% |    23681373     96.29%    100.00%
system.ruby.L1Cache_Controller.Data::total     24594759                      
system.ruby.L1Cache_Controller.Fwd_GETX  |      191256     32.96%     32.96% |      184732     31.84%     64.80% |      184424     31.79%     96.59% |       19782      3.41%    100.00%
system.ruby.L1Cache_Controller.Fwd_GETX::total       580194                      
system.ruby.L1Cache_Controller.Inv       |           0      0.00%      0.00% |           0      0.00%      0.00% |           0      0.00%      0.00% |           4    100.00%    100.00%
system.ruby.L1Cache_Controller.Inv::total            4                      
system.ruby.L1Cache_Controller.Replacement |      109925      0.46%      0.46% |      245566      1.02%      1.48% |       58988      0.24%      1.72% |    23666444     98.28%    100.00%
system.ruby.L1Cache_Controller.Replacement::total     24080923                      
system.ruby.L1Cache_Controller.Writeback_Ack |       85467      0.36%      0.36% |      226510      0.94%      1.30% |       41225      0.17%      1.47% |    23661493     98.53%    100.00%
system.ruby.L1Cache_Controller.Writeback_Ack::total     24014695                      
system.ruby.L1Cache_Controller.Writeback_Nack |           1     33.33%     33.33% |           1     33.33%     66.67% |           0      0.00%     66.67% |           1     33.33%    100.00%
system.ruby.L1Cache_Controller.Writeback_Nack::total            3                      
system.ruby.L1Cache_Controller.I.Load    |       64520      0.47%      0.47% |      164738      1.20%      1.67% |       50615      0.37%      2.03% |    13475295     97.97%    100.00%
system.ruby.L1Cache_Controller.I.Load::total     13755168                      
system.ruby.L1Cache_Controller.I.Ifetch  |      193687     20.00%     20.00% |      187344     19.35%     39.35% |      167195     17.27%     56.62% |      419969     43.38%    100.00%
system.ruby.L1Cache_Controller.I.Ifetch::total       968195                      
system.ruby.L1Cache_Controller.I.Store   |       18452      0.19%      0.19% |       59160      0.60%      0.79% |        7675      0.08%      0.86% |     9786109     99.14%    100.00%
system.ruby.L1Cache_Controller.I.Store::total      9871396                      
system.ruby.L1Cache_Controller.I.Replacement |       24457     36.93%     36.93% |       19055     28.77%     65.70% |       17763     26.82%     92.52% |        4952      7.48%    100.00%
system.ruby.L1Cache_Controller.I.Replacement::total        66227                      
system.ruby.L1Cache_Controller.II.Writeback_Nack |           1     33.33%     33.33% |           1     33.33%     66.67% |           0      0.00%     66.67% |           1     33.33%    100.00%
system.ruby.L1Cache_Controller.II.Writeback_Nack::total            3                      
system.ruby.L1Cache_Controller.M.Load    |     1147404      1.45%      1.45% |     3218752      4.07%      5.52% |      762553      0.96%      6.48% |    73980710     93.52%    100.00%
system.ruby.L1Cache_Controller.M.Load::total     79109419                      
system.ruby.L1Cache_Controller.M.Ifetch  |     5682666      0.53%      0.53% |    19814139      1.83%      2.36% |     3501532      0.32%      2.68% |  1051710429     97.32%    100.00%
system.ruby.L1Cache_Controller.M.Ifetch::total   1080708766                      
system.ruby.L1Cache_Controller.M.Store   |      947385      1.27%      1.27% |     2529459      3.40%      4.67% |      577824      0.78%      5.45% |    70367750     94.55%    100.00%
system.ruby.L1Cache_Controller.M.Store::total     74422418                      
system.ruby.L1Cache_Controller.M.Fwd_GETX |      191255     32.96%     32.96% |      184731     31.84%     64.80% |      184424     31.79%     96.59% |       19781      3.41%    100.00%
system.ruby.L1Cache_Controller.M.Fwd_GETX::total       580191                      
system.ruby.L1Cache_Controller.M.Inv     |           0      0.00%      0.00% |           0      0.00%      0.00% |           0      0.00%      0.00% |           2    100.00%    100.00%
system.ruby.L1Cache_Controller.M.Inv::total            2                      
system.ruby.L1Cache_Controller.M.Replacement |       85468      0.36%      0.36% |      226511      0.94%      1.30% |       41225      0.17%      1.47% |    23661492     98.53%    100.00%
system.ruby.L1Cache_Controller.M.Replacement::total     24014696                      
system.ruby.L1Cache_Controller.MI.Fwd_GETX |           1     33.33%     33.33% |           1     33.33%     66.67% |           0      0.00%     66.67% |           1     33.33%    100.00%
system.ruby.L1Cache_Controller.MI.Fwd_GETX::total            3                      
system.ruby.L1Cache_Controller.MI.Inv    |           0      0.00%      0.00% |           0      0.00%      0.00% |           0      0.00%      0.00% |           2    100.00%    100.00%
system.ruby.L1Cache_Controller.MI.Inv::total            2                      
system.ruby.L1Cache_Controller.MI.Writeback_Ack |       85467      0.36%      0.36% |      226510      0.94%      1.30% |       41225      0.17%      1.47% |    23661493     98.53%    100.00%
system.ruby.L1Cache_Controller.MI.Writeback_Ack::total     24014695                      
system.ruby.L1Cache_Controller.IS.Data   |      258207      1.75%      1.75% |      352082      2.39%      4.15% |      217810      1.48%      5.62% |    13895264     94.38%    100.00%
system.ruby.L1Cache_Controller.IS.Data::total     14723363                      
system.ruby.L1Cache_Controller.IM.Data   |       18452      0.19%      0.19% |       59160      0.60%      0.79% |        7675      0.08%      0.86% |     9786109     99.14%    100.00%
system.ruby.L1Cache_Controller.IM.Data::total      9871396                      

---------- End Simulation Statistics   ----------
