Redirecting stdout to /root/anthony/lelec2990-sim2/splash2x.fmm/X86_MOESI_hammer/cacheline_size/128b/stdout.txt
Redirecting stderr to /root/anthony/lelec2990-sim2/splash2x.fmm/X86_MOESI_hammer/cacheline_size/128b/stderr.txt
gem5 Simulator System.  http://gem5.org
gem5 is copyrighted software; use the --copyright option for details.

gem5 compiled Jun  1 2016 13:03:12
gem5 started Jun  5 2016 04:47:54
gem5 executing on denison.info.ucl.ac.be, pid 2152819
command line: /root/anthony/gem5/build/X86_MOESI_hammer/gem5.opt --outdir=/root/anthony/lelec2990-sim2/splash2x.fmm/X86_MOESI_hammer/cacheline_size/128b -e --stderr-file=/root/anthony/lelec2990-sim2/splash2x.fmm/X86_MOESI_hammer/cacheline_size/128b/stderr.txt -r --stdout-file=/root/anthony/lelec2990-sim2/splash2x.fmm/X86_MOESI_hammer/cacheline_size/128b/stdout.txt /root/anthony/gem5/configs/example/fs.py --mem-size 1GB --script /root/anthony/lelec2990-sim2/my_sim_script --num-cpus 4 --ruby -r 1 --restore-with-cpu timing --cacheline_size 128

Global frequency set at 1000000000000 ticks per second
info: kernel located at: /root/anthony/debian/binaries/vmlinux
      0: rtc: Real-time clock set to Sun Jan  1 00:00:00 2012
**** REAL SIMULATION ****
info: Entering event queue @ 53097516113500.  Starting simulation...
