
---------- Begin Simulation Statistics ----------
sim_seconds                                  1.673240                       # Number of seconds simulated
sim_ticks                                1673239578500                       # Number of ticks simulated
final_tick                               54013172016001                       # Number of ticks from beginning of simulation (restored from checkpoints and never reset)
sim_freq                                 1000000000000                       # Frequency of simulated ticks
host_inst_rate                                 103086                       # Simulator instruction rate (inst/s)
host_op_rate                                   153585                       # Simulator op (including micro ops) rate (op/s)
host_tick_rate                              238009109                       # Simulator tick rate (ticks/s)
host_mem_usage                                1718848                       # Number of bytes of host memory used
host_seconds                                  7030.15                       # Real time elapsed on the host
sim_insts                                   724712364                       # Number of instructions simulated
sim_ops                                    1079727514                       # Number of ops (including micro ops) simulated
system.voltage_domain.voltage                       1                       # Voltage in Volts
system.clk_domain.clock                          1000                       # Clock period in ticks
system.mem_ctrls.bytes_read::ruby.dir_cntrl0    395420288                       # Number of bytes read from this memory
system.mem_ctrls.bytes_read::total          395420288                       # Number of bytes read from this memory
system.mem_ctrls.bytes_written::ruby.dir_cntrl0    186374912                       # Number of bytes written to this memory
system.mem_ctrls.bytes_written::total       186374912                       # Number of bytes written to this memory
system.mem_ctrls.num_reads::ruby.dir_cntrl0      3089221                       # Number of read requests responded to by this memory
system.mem_ctrls.num_reads::total             3089221                       # Number of read requests responded to by this memory
system.mem_ctrls.num_writes::ruby.dir_cntrl0      1456054                       # Number of write requests responded to by this memory
system.mem_ctrls.num_writes::total            1456054                       # Number of write requests responded to by this memory
system.mem_ctrls.bw_read::ruby.dir_cntrl0    236320186                       # Total read bandwidth from this memory (bytes/s)
system.mem_ctrls.bw_read::total             236320186                       # Total read bandwidth from this memory (bytes/s)
system.mem_ctrls.bw_write::ruby.dir_cntrl0    111385670                       # Write bandwidth from this memory (bytes/s)
system.mem_ctrls.bw_write::total            111385670                       # Write bandwidth from this memory (bytes/s)
system.mem_ctrls.bw_total::ruby.dir_cntrl0    347705856                       # Total bandwidth to/from this memory (bytes/s)
system.mem_ctrls.bw_total::total            347705856                       # Total bandwidth to/from this memory (bytes/s)
system.mem_ctrls.readReqs                     3089221                       # Number of read requests accepted
system.mem_ctrls.writeReqs                    1456054                       # Number of write requests accepted
system.mem_ctrls.readBursts                   6178442                       # Number of DRAM read bursts, including those serviced by the write queue
system.mem_ctrls.writeBursts                  2912108                       # Number of DRAM write bursts, including those merged in the write queue
system.mem_ctrls.bytesReadDRAM              394491904                       # Total number of bytes read from DRAM
system.mem_ctrls.bytesReadWrQ                  928384                       # Total number of bytes read from write queue
system.mem_ctrls.bytesWritten               186374848                       # Total number of bytes written to DRAM
system.mem_ctrls.bytesReadSys               395420288                       # Total read bytes from the system interface side
system.mem_ctrls.bytesWrittenSys            186374912                       # Total written bytes from the system interface side
system.mem_ctrls.servicedByWrQ                  14506                       # Number of DRAM read bursts serviced by the write queue
system.mem_ctrls.mergedWrBursts                     2                       # Number of DRAM write bursts merged with an existing one
system.mem_ctrls.neitherReadNorWriteReqs            0                       # Number of requests that are neither read nor write
system.mem_ctrls.perBankRdBursts::0            388142                       # Per bank write bursts
system.mem_ctrls.perBankRdBursts::1            385500                       # Per bank write bursts
system.mem_ctrls.perBankRdBursts::2            376574                       # Per bank write bursts
system.mem_ctrls.perBankRdBursts::3            382272                       # Per bank write bursts
system.mem_ctrls.perBankRdBursts::4            390106                       # Per bank write bursts
system.mem_ctrls.perBankRdBursts::5            387232                       # Per bank write bursts
system.mem_ctrls.perBankRdBursts::6            414880                       # Per bank write bursts
system.mem_ctrls.perBankRdBursts::7            388578                       # Per bank write bursts
system.mem_ctrls.perBankRdBursts::8            394158                       # Per bank write bursts
system.mem_ctrls.perBankRdBursts::9            387228                       # Per bank write bursts
system.mem_ctrls.perBankRdBursts::10           371861                       # Per bank write bursts
system.mem_ctrls.perBankRdBursts::11           379887                       # Per bank write bursts
system.mem_ctrls.perBankRdBursts::12           377486                       # Per bank write bursts
system.mem_ctrls.perBankRdBursts::13           373575                       # Per bank write bursts
system.mem_ctrls.perBankRdBursts::14           375772                       # Per bank write bursts
system.mem_ctrls.perBankRdBursts::15           390685                       # Per bank write bursts
system.mem_ctrls.perBankWrBursts::0            178876                       # Per bank write bursts
system.mem_ctrls.perBankWrBursts::1            183736                       # Per bank write bursts
system.mem_ctrls.perBankWrBursts::2            176028                       # Per bank write bursts
system.mem_ctrls.perBankWrBursts::3            178422                       # Per bank write bursts
system.mem_ctrls.perBankWrBursts::4            181353                       # Per bank write bursts
system.mem_ctrls.perBankWrBursts::5            184068                       # Per bank write bursts
system.mem_ctrls.perBankWrBursts::6            203152                       # Per bank write bursts
system.mem_ctrls.perBankWrBursts::7            188756                       # Per bank write bursts
system.mem_ctrls.perBankWrBursts::8            195456                       # Per bank write bursts
system.mem_ctrls.perBankWrBursts::9            186680                       # Per bank write bursts
system.mem_ctrls.perBankWrBursts::10           172734                       # Per bank write bursts
system.mem_ctrls.perBankWrBursts::11           178438                       # Per bank write bursts
system.mem_ctrls.perBankWrBursts::12           177238                       # Per bank write bursts
system.mem_ctrls.perBankWrBursts::13           171680                       # Per bank write bursts
system.mem_ctrls.perBankWrBursts::14           172482                       # Per bank write bursts
system.mem_ctrls.perBankWrBursts::15           183008                       # Per bank write bursts
system.mem_ctrls.numRdRetry                         0                       # Number of times read queue was full causing retry
system.mem_ctrls.numWrRetry                         0                       # Number of times write queue was full causing retry
system.mem_ctrls.totGap                  1673239397500                       # Total gap between requests
system.mem_ctrls.readPktSize::0                     0                       # Read request sizes (log2)
system.mem_ctrls.readPktSize::1                     0                       # Read request sizes (log2)
system.mem_ctrls.readPktSize::2                     0                       # Read request sizes (log2)
system.mem_ctrls.readPktSize::3                     0                       # Read request sizes (log2)
system.mem_ctrls.readPktSize::4                     0                       # Read request sizes (log2)
system.mem_ctrls.readPktSize::5                     0                       # Read request sizes (log2)
system.mem_ctrls.readPktSize::6               6178442                       # Read request sizes (log2)
system.mem_ctrls.writePktSize::0                    0                       # Write request sizes (log2)
system.mem_ctrls.writePktSize::1                    0                       # Write request sizes (log2)
system.mem_ctrls.writePktSize::2                    0                       # Write request sizes (log2)
system.mem_ctrls.writePktSize::3                    0                       # Write request sizes (log2)
system.mem_ctrls.writePktSize::4                    0                       # Write request sizes (log2)
system.mem_ctrls.writePktSize::5                    0                       # Write request sizes (log2)
system.mem_ctrls.writePktSize::6              2912108                       # Write request sizes (log2)
system.mem_ctrls.rdQLenPdf::0                 3070373                       # What read queue length does an incoming req see
system.mem_ctrls.rdQLenPdf::1                 3071452                       # What read queue length does an incoming req see
system.mem_ctrls.rdQLenPdf::2                   11753                       # What read queue length does an incoming req see
system.mem_ctrls.rdQLenPdf::3                   10358                       # What read queue length does an incoming req see
system.mem_ctrls.rdQLenPdf::4                       0                       # What read queue length does an incoming req see
system.mem_ctrls.rdQLenPdf::5                       0                       # What read queue length does an incoming req see
system.mem_ctrls.rdQLenPdf::6                       0                       # What read queue length does an incoming req see
system.mem_ctrls.rdQLenPdf::7                       0                       # What read queue length does an incoming req see
system.mem_ctrls.rdQLenPdf::8                       0                       # What read queue length does an incoming req see
system.mem_ctrls.rdQLenPdf::9                       0                       # What read queue length does an incoming req see
system.mem_ctrls.rdQLenPdf::10                      0                       # What read queue length does an incoming req see
system.mem_ctrls.rdQLenPdf::11                      0                       # What read queue length does an incoming req see
system.mem_ctrls.rdQLenPdf::12                      0                       # What read queue length does an incoming req see
system.mem_ctrls.rdQLenPdf::13                      0                       # What read queue length does an incoming req see
system.mem_ctrls.rdQLenPdf::14                      0                       # What read queue length does an incoming req see
system.mem_ctrls.rdQLenPdf::15                      0                       # What read queue length does an incoming req see
system.mem_ctrls.rdQLenPdf::16                      0                       # What read queue length does an incoming req see
system.mem_ctrls.rdQLenPdf::17                      0                       # What read queue length does an incoming req see
system.mem_ctrls.rdQLenPdf::18                      0                       # What read queue length does an incoming req see
system.mem_ctrls.rdQLenPdf::19                      0                       # What read queue length does an incoming req see
system.mem_ctrls.rdQLenPdf::20                      0                       # What read queue length does an incoming req see
system.mem_ctrls.rdQLenPdf::21                      0                       # What read queue length does an incoming req see
system.mem_ctrls.rdQLenPdf::22                      0                       # What read queue length does an incoming req see
system.mem_ctrls.rdQLenPdf::23                      0                       # What read queue length does an incoming req see
system.mem_ctrls.rdQLenPdf::24                      0                       # What read queue length does an incoming req see
system.mem_ctrls.rdQLenPdf::25                      0                       # What read queue length does an incoming req see
system.mem_ctrls.rdQLenPdf::26                      0                       # What read queue length does an incoming req see
system.mem_ctrls.rdQLenPdf::27                      0                       # What read queue length does an incoming req see
system.mem_ctrls.rdQLenPdf::28                      0                       # What read queue length does an incoming req see
system.mem_ctrls.rdQLenPdf::29                      0                       # What read queue length does an incoming req see
system.mem_ctrls.rdQLenPdf::30                      0                       # What read queue length does an incoming req see
system.mem_ctrls.rdQLenPdf::31                      0                       # What read queue length does an incoming req see
system.mem_ctrls.wrQLenPdf::0                       0                       # What write queue length does an incoming req see
system.mem_ctrls.wrQLenPdf::1                       0                       # What write queue length does an incoming req see
system.mem_ctrls.wrQLenPdf::2                       0                       # What write queue length does an incoming req see
system.mem_ctrls.wrQLenPdf::3                       0                       # What write queue length does an incoming req see
system.mem_ctrls.wrQLenPdf::4                       0                       # What write queue length does an incoming req see
system.mem_ctrls.wrQLenPdf::5                       0                       # What write queue length does an incoming req see
system.mem_ctrls.wrQLenPdf::6                       0                       # What write queue length does an incoming req see
system.mem_ctrls.wrQLenPdf::7                       0                       # What write queue length does an incoming req see
system.mem_ctrls.wrQLenPdf::8                       0                       # What write queue length does an incoming req see
system.mem_ctrls.wrQLenPdf::9                       0                       # What write queue length does an incoming req see
system.mem_ctrls.wrQLenPdf::10                      0                       # What write queue length does an incoming req see
system.mem_ctrls.wrQLenPdf::11                      0                       # What write queue length does an incoming req see
system.mem_ctrls.wrQLenPdf::12                      0                       # What write queue length does an incoming req see
system.mem_ctrls.wrQLenPdf::13                      0                       # What write queue length does an incoming req see
system.mem_ctrls.wrQLenPdf::14                      0                       # What write queue length does an incoming req see
system.mem_ctrls.wrQLenPdf::15                   5101                       # What write queue length does an incoming req see
system.mem_ctrls.wrQLenPdf::16                   5595                       # What write queue length does an incoming req see
system.mem_ctrls.wrQLenPdf::17                 162842                       # What write queue length does an incoming req see
system.mem_ctrls.wrQLenPdf::18                 180024                       # What write queue length does an incoming req see
system.mem_ctrls.wrQLenPdf::19                 181415                       # What write queue length does an incoming req see
system.mem_ctrls.wrQLenPdf::20                 181640                       # What write queue length does an incoming req see
system.mem_ctrls.wrQLenPdf::21                 181585                       # What write queue length does an incoming req see
system.mem_ctrls.wrQLenPdf::22                 181572                       # What write queue length does an incoming req see
system.mem_ctrls.wrQLenPdf::23                 181535                       # What write queue length does an incoming req see
system.mem_ctrls.wrQLenPdf::24                 181540                       # What write queue length does an incoming req see
system.mem_ctrls.wrQLenPdf::25                 181506                       # What write queue length does an incoming req see
system.mem_ctrls.wrQLenPdf::26                 181530                       # What write queue length does an incoming req see
system.mem_ctrls.wrQLenPdf::27                 181499                       # What write queue length does an incoming req see
system.mem_ctrls.wrQLenPdf::28                 181440                       # What write queue length does an incoming req see
system.mem_ctrls.wrQLenPdf::29                 181422                       # What write queue length does an incoming req see
system.mem_ctrls.wrQLenPdf::30                 181383                       # What write queue length does an incoming req see
system.mem_ctrls.wrQLenPdf::31                 181321                       # What write queue length does an incoming req see
system.mem_ctrls.wrQLenPdf::32                 181301                       # What write queue length does an incoming req see
system.mem_ctrls.wrQLenPdf::33                  17824                       # What write queue length does an incoming req see
system.mem_ctrls.wrQLenPdf::34                     28                       # What write queue length does an incoming req see
system.mem_ctrls.wrQLenPdf::35                      3                       # What write queue length does an incoming req see
system.mem_ctrls.wrQLenPdf::36                      0                       # What write queue length does an incoming req see
system.mem_ctrls.wrQLenPdf::37                      0                       # What write queue length does an incoming req see
system.mem_ctrls.wrQLenPdf::38                      0                       # What write queue length does an incoming req see
system.mem_ctrls.wrQLenPdf::39                      0                       # What write queue length does an incoming req see
system.mem_ctrls.wrQLenPdf::40                      0                       # What write queue length does an incoming req see
system.mem_ctrls.wrQLenPdf::41                      0                       # What write queue length does an incoming req see
system.mem_ctrls.wrQLenPdf::42                      0                       # What write queue length does an incoming req see
system.mem_ctrls.wrQLenPdf::43                      0                       # What write queue length does an incoming req see
system.mem_ctrls.wrQLenPdf::44                      0                       # What write queue length does an incoming req see
system.mem_ctrls.wrQLenPdf::45                      0                       # What write queue length does an incoming req see
system.mem_ctrls.wrQLenPdf::46                      0                       # What write queue length does an incoming req see
system.mem_ctrls.wrQLenPdf::47                      0                       # What write queue length does an incoming req see
system.mem_ctrls.wrQLenPdf::48                      0                       # What write queue length does an incoming req see
system.mem_ctrls.wrQLenPdf::49                      0                       # What write queue length does an incoming req see
system.mem_ctrls.wrQLenPdf::50                      0                       # What write queue length does an incoming req see
system.mem_ctrls.wrQLenPdf::51                      0                       # What write queue length does an incoming req see
system.mem_ctrls.wrQLenPdf::52                      0                       # What write queue length does an incoming req see
system.mem_ctrls.wrQLenPdf::53                      0                       # What write queue length does an incoming req see
system.mem_ctrls.wrQLenPdf::54                      0                       # What write queue length does an incoming req see
system.mem_ctrls.wrQLenPdf::55                      0                       # What write queue length does an incoming req see
system.mem_ctrls.wrQLenPdf::56                      0                       # What write queue length does an incoming req see
system.mem_ctrls.wrQLenPdf::57                      0                       # What write queue length does an incoming req see
system.mem_ctrls.wrQLenPdf::58                      0                       # What write queue length does an incoming req see
system.mem_ctrls.wrQLenPdf::59                      0                       # What write queue length does an incoming req see
system.mem_ctrls.wrQLenPdf::60                      0                       # What write queue length does an incoming req see
system.mem_ctrls.wrQLenPdf::61                      0                       # What write queue length does an incoming req see
system.mem_ctrls.wrQLenPdf::62                      0                       # What write queue length does an incoming req see
system.mem_ctrls.wrQLenPdf::63                      0                       # What write queue length does an incoming req see
system.mem_ctrls.bytesPerActivate::samples      2474690                       # Bytes accessed per row activation
system.mem_ctrls.bytesPerActivate::mean    234.723192                       # Bytes accessed per row activation
system.mem_ctrls.bytesPerActivate::gmean   168.764665                       # Bytes accessed per row activation
system.mem_ctrls.bytesPerActivate::stdev   256.297279                       # Bytes accessed per row activation
system.mem_ctrls.bytesPerActivate::0-127       159500      6.45%      6.45% # Bytes accessed per row activation
system.mem_ctrls.bytesPerActivate::128-255      1783287     72.06%     78.51% # Bytes accessed per row activation
system.mem_ctrls.bytesPerActivate::256-383       122963      4.97%     83.48% # Bytes accessed per row activation
system.mem_ctrls.bytesPerActivate::384-511        79781      3.22%     86.70% # Bytes accessed per row activation
system.mem_ctrls.bytesPerActivate::512-639        57971      2.34%     89.04% # Bytes accessed per row activation
system.mem_ctrls.bytesPerActivate::640-767        45700      1.85%     90.89% # Bytes accessed per row activation
system.mem_ctrls.bytesPerActivate::768-895        36140      1.46%     92.35% # Bytes accessed per row activation
system.mem_ctrls.bytesPerActivate::896-1023        28913      1.17%     93.52% # Bytes accessed per row activation
system.mem_ctrls.bytesPerActivate::1024-1151       160435      6.48%    100.00% # Bytes accessed per row activation
system.mem_ctrls.bytesPerActivate::total      2474690                       # Bytes accessed per row activation
system.mem_ctrls.rdPerTurnAround::samples       181268                       # Reads before turning the bus around for writes
system.mem_ctrls.rdPerTurnAround::mean      34.005241                       # Reads before turning the bus around for writes
system.mem_ctrls.rdPerTurnAround::gmean     24.398863                       # Reads before turning the bus around for writes
system.mem_ctrls.rdPerTurnAround::stdev    165.898324                       # Reads before turning the bus around for writes
system.mem_ctrls.rdPerTurnAround::0-511        180555     99.61%     99.61% # Reads before turning the bus around for writes
system.mem_ctrls.rdPerTurnAround::512-1023          206      0.11%     99.72% # Reads before turning the bus around for writes
system.mem_ctrls.rdPerTurnAround::1024-1535          144      0.08%     99.80% # Reads before turning the bus around for writes
system.mem_ctrls.rdPerTurnAround::1536-2047          106      0.06%     99.86% # Reads before turning the bus around for writes
system.mem_ctrls.rdPerTurnAround::2048-2559           86      0.05%     99.91% # Reads before turning the bus around for writes
system.mem_ctrls.rdPerTurnAround::2560-3071           36      0.02%     99.93% # Reads before turning the bus around for writes
system.mem_ctrls.rdPerTurnAround::3072-3583           35      0.02%     99.94% # Reads before turning the bus around for writes
system.mem_ctrls.rdPerTurnAround::3584-4095           49      0.03%     99.97% # Reads before turning the bus around for writes
system.mem_ctrls.rdPerTurnAround::4096-4607           16      0.01%     99.98% # Reads before turning the bus around for writes
system.mem_ctrls.rdPerTurnAround::4608-5119            6      0.00%     99.98% # Reads before turning the bus around for writes
system.mem_ctrls.rdPerTurnAround::5120-5631            3      0.00%     99.99% # Reads before turning the bus around for writes
system.mem_ctrls.rdPerTurnAround::5632-6143            2      0.00%     99.99% # Reads before turning the bus around for writes
system.mem_ctrls.rdPerTurnAround::6656-7167            1      0.00%     99.99% # Reads before turning the bus around for writes
system.mem_ctrls.rdPerTurnAround::7168-7679            7      0.00%     99.99% # Reads before turning the bus around for writes
system.mem_ctrls.rdPerTurnAround::7680-8191            3      0.00%     99.99% # Reads before turning the bus around for writes
system.mem_ctrls.rdPerTurnAround::8192-8703            4      0.00%    100.00% # Reads before turning the bus around for writes
system.mem_ctrls.rdPerTurnAround::9216-9727            3      0.00%    100.00% # Reads before turning the bus around for writes
system.mem_ctrls.rdPerTurnAround::9728-10239            1      0.00%    100.00% # Reads before turning the bus around for writes
system.mem_ctrls.rdPerTurnAround::10240-10751            3      0.00%    100.00% # Reads before turning the bus around for writes
system.mem_ctrls.rdPerTurnAround::11264-11775            1      0.00%    100.00% # Reads before turning the bus around for writes
system.mem_ctrls.rdPerTurnAround::12800-13311            1      0.00%    100.00% # Reads before turning the bus around for writes
system.mem_ctrls.rdPerTurnAround::total        181268                       # Reads before turning the bus around for writes
system.mem_ctrls.wrPerTurnAround::samples       181268                       # Writes before turning the bus around for reads
system.mem_ctrls.wrPerTurnAround::mean      16.065202                       # Writes before turning the bus around for reads
system.mem_ctrls.wrPerTurnAround::gmean     16.061392                       # Writes before turning the bus around for reads
system.mem_ctrls.wrPerTurnAround::stdev      0.364221                       # Writes before turning the bus around for reads
system.mem_ctrls.wrPerTurnAround::16           175428     96.78%     96.78% # Writes before turning the bus around for reads
system.mem_ctrls.wrPerTurnAround::17              353      0.19%     96.97% # Writes before turning the bus around for reads
system.mem_ctrls.wrPerTurnAround::18             5022      2.77%     99.74% # Writes before turning the bus around for reads
system.mem_ctrls.wrPerTurnAround::19              439      0.24%     99.99% # Writes before turning the bus around for reads
system.mem_ctrls.wrPerTurnAround::20               25      0.01%    100.00% # Writes before turning the bus around for reads
system.mem_ctrls.wrPerTurnAround::21                1      0.00%    100.00% # Writes before turning the bus around for reads
system.mem_ctrls.wrPerTurnAround::total        181268                       # Writes before turning the bus around for reads
system.mem_ctrls.totQLat                 155663997408                       # Total ticks spent queuing
system.mem_ctrls.totMemAccLat            271237797408                       # Total ticks spent from burst creation until serviced by the DRAM
system.mem_ctrls.totBusLat                30819680000                       # Total ticks spent in databus transfers
system.mem_ctrls.avgQLat                     25253.99                       # Average queueing delay per DRAM burst
system.mem_ctrls.avgBusLat                    5000.00                       # Average bus latency per DRAM burst
system.mem_ctrls.avgMemAccLat                44003.99                       # Average memory access latency per DRAM burst
system.mem_ctrls.avgRdBW                       235.77                       # Average DRAM read bandwidth in MiByte/s
system.mem_ctrls.avgWrBW                       111.39                       # Average achieved write bandwidth in MiByte/s
system.mem_ctrls.avgRdBWSys                    236.32                       # Average system read bandwidth in MiByte/s
system.mem_ctrls.avgWrBWSys                    111.39                       # Average system write bandwidth in MiByte/s
system.mem_ctrls.peakBW                      12800.00                       # Theoretical peak bandwidth in MiByte/s
system.mem_ctrls.busUtil                         2.71                       # Data bus utilization in percentage
system.mem_ctrls.busUtilRead                     1.84                       # Data bus utilization in percentage for reads
system.mem_ctrls.busUtilWrite                    0.87                       # Data bus utilization in percentage for writes
system.mem_ctrls.avgRdQLen                       2.00                       # Average read queue length when enqueuing
system.mem_ctrls.avgWrQLen                      26.14                       # Average write queue length when enqueuing
system.mem_ctrls.readRowHits                  4776580                       # Number of row buffer hits during reads
system.mem_ctrls.writeRowHits                 1824773                       # Number of row buffer hits during writes
system.mem_ctrls.readRowHitRate                 77.49                       # Row buffer hit rate for reads
system.mem_ctrls.writeRowHitRate                62.66                       # Row buffer hit rate for writes
system.mem_ctrls.avgGap                     368127.21                       # Average gap between requests
system.mem_ctrls.pageHitRate                    72.73                       # Row buffer hit rate, read and write combined
system.mem_ctrls_0.actEnergy               9522077040                       # Energy for activate commands per rank (pJ)
system.mem_ctrls_0.preEnergy               5195577750                       # Energy for precharge commands per rank (pJ)
system.mem_ctrls_0.readEnergy             24358604400                       # Energy for read commands per rank (pJ)
system.mem_ctrls_0.writeEnergy             9555012720                       # Energy for write commands per rank (pJ)
system.mem_ctrls_0.refreshEnergy         109484322480                       # Energy for refresh commands per rank (pJ)
system.mem_ctrls_0.actBackEnergy         522182465730                       # Energy for active background per rank (pJ)
system.mem_ctrls_0.preBackEnergy         547693734000                       # Energy for precharge background per rank (pJ)
system.mem_ctrls_0.totalEnergy           1227991794120                       # Total energy per rank (pJ)
system.mem_ctrls_0.averagePower            732.583798                       # Core power per rank (mW)
system.mem_ctrls_0.memoryStateTime::IDLE 905815393753                       # Time in different power states
system.mem_ctrls_0.memoryStateTime::REF   55873220000                       # Time in different power states
system.mem_ctrls_0.memoryStateTime::PRE_PDN            0                       # Time in different power states
system.mem_ctrls_0.memoryStateTime::ACT  711551317497                       # Time in different power states
system.mem_ctrls_0.memoryStateTime::ACT_PDN            0                       # Time in different power states
system.mem_ctrls_1.actEnergy               9211444200                       # Energy for activate commands per rank (pJ)
system.mem_ctrls_1.preEnergy               5026085625                       # Energy for precharge commands per rank (pJ)
system.mem_ctrls_1.readEnergy             23856237600                       # Energy for read commands per rank (pJ)
system.mem_ctrls_1.writeEnergy             9316581120                       # Energy for write commands per rank (pJ)
system.mem_ctrls_1.refreshEnergy         109484322480                       # Energy for refresh commands per rank (pJ)
system.mem_ctrls_1.actBackEnergy         518192963910                       # Energy for active background per rank (pJ)
system.mem_ctrls_1.preBackEnergy         551193279750                       # Energy for precharge background per rank (pJ)
system.mem_ctrls_1.totalEnergy           1226280914685                       # Total energy per rank (pJ)
system.mem_ctrls_1.averagePower            731.563150                       # Core power per rank (mW)
system.mem_ctrls_1.memoryStateTime::IDLE 911487527255                       # Time in different power states
system.mem_ctrls_1.memoryStateTime::REF   55873220000                       # Time in different power states
system.mem_ctrls_1.memoryStateTime::PRE_PDN            0                       # Time in different power states
system.mem_ctrls_1.memoryStateTime::ACT  705881018995                       # Time in different power states
system.mem_ctrls_1.memoryStateTime::ACT_PDN            0                       # Time in different power states
system.cpu_voltage_domain.voltage                   1                       # Voltage in Volts
system.cpu_clk_domain.clock                       500                       # Clock period in ticks
system.cpu0.apic_clk_domain.clock                8000                       # Clock period in ticks
system.cpu0.numCycles                      3349379250                       # number of cpu cycles simulated
system.cpu0.numWorkItemsStarted                     0                       # number of work items this cpu started
system.cpu0.numWorkItemsCompleted                   0                       # number of work items this cpu completed
system.cpu0.kern.inst.arm                           0                       # number of arm instructions executed
system.cpu0.kern.inst.quiesce                       0                       # number of quiesce instructions executed
system.cpu0.committedInsts                    1382137                       # Number of instructions committed
system.cpu0.committedOps                      3003298                       # Number of ops (including micro ops) committed
system.cpu0.num_int_alu_accesses              2938670                       # Number of integer alu accesses
system.cpu0.num_fp_alu_accesses                    39                       # Number of float alu accesses
system.cpu0.num_func_calls                      88346                       # number of times a function call or return occured
system.cpu0.num_conditional_control_insts       198473                       # number of instructions that are conditional controls
system.cpu0.num_int_insts                     2938670                       # number of integer instructions
system.cpu0.num_fp_insts                           39                       # number of float instructions
system.cpu0.num_int_register_reads            5978188                       # number of times the integer registers were read
system.cpu0.num_int_register_writes           2432802                       # number of times the integer registers were written
system.cpu0.num_fp_register_reads                  63                       # number of times the floating registers were read
system.cpu0.num_fp_register_writes                 31                       # number of times the floating registers were written
system.cpu0.num_cc_register_reads             1653403                       # number of times the CC registers were read
system.cpu0.num_cc_register_writes             898427                       # number of times the CC registers were written
system.cpu0.num_mem_refs                       710872                       # number of memory refs
system.cpu0.num_load_insts                     437998                       # Number of load instructions
system.cpu0.num_store_insts                    272874                       # Number of store instructions
system.cpu0.num_idle_cycles              3340618181.142278                       # Number of idle cycles
system.cpu0.num_busy_cycles              8761068.857723                       # Number of busy cycles
system.cpu0.not_idle_fraction                0.002616                       # Percentage of non-idle cycles
system.cpu0.idle_fraction                    0.997384                       # Percentage of idle cycles
system.cpu0.Branches                           313866                       # Number of branches fetched
system.cpu0.op_class::No_OpClass                51735      1.72%      1.72% # Class of executed instruction
system.cpu0.op_class::IntAlu                  2217935     73.85%     75.57% # Class of executed instruction
system.cpu0.op_class::IntMult                    5557      0.19%     75.76% # Class of executed instruction
system.cpu0.op_class::IntDiv                    17191      0.57%     76.33% # Class of executed instruction
system.cpu0.op_class::FloatAdd                     30      0.00%     76.33% # Class of executed instruction
system.cpu0.op_class::FloatCmp                      0      0.00%     76.33% # Class of executed instruction
system.cpu0.op_class::FloatCvt                      0      0.00%     76.33% # Class of executed instruction
system.cpu0.op_class::FloatMult                     0      0.00%     76.33% # Class of executed instruction
system.cpu0.op_class::FloatDiv                      0      0.00%     76.33% # Class of executed instruction
system.cpu0.op_class::FloatSqrt                     0      0.00%     76.33% # Class of executed instruction
system.cpu0.op_class::SimdAdd                       0      0.00%     76.33% # Class of executed instruction
system.cpu0.op_class::SimdAddAcc                    0      0.00%     76.33% # Class of executed instruction
system.cpu0.op_class::SimdAlu                       0      0.00%     76.33% # Class of executed instruction
system.cpu0.op_class::SimdCmp                       0      0.00%     76.33% # Class of executed instruction
system.cpu0.op_class::SimdCvt                       0      0.00%     76.33% # Class of executed instruction
system.cpu0.op_class::SimdMisc                      0      0.00%     76.33% # Class of executed instruction
system.cpu0.op_class::SimdMult                      0      0.00%     76.33% # Class of executed instruction
system.cpu0.op_class::SimdMultAcc                   0      0.00%     76.33% # Class of executed instruction
system.cpu0.op_class::SimdShift                     0      0.00%     76.33% # Class of executed instruction
system.cpu0.op_class::SimdShiftAcc                  0      0.00%     76.33% # Class of executed instruction
system.cpu0.op_class::SimdSqrt                      0      0.00%     76.33% # Class of executed instruction
system.cpu0.op_class::SimdFloatAdd                  0      0.00%     76.33% # Class of executed instruction
system.cpu0.op_class::SimdFloatAlu                  0      0.00%     76.33% # Class of executed instruction
system.cpu0.op_class::SimdFloatCmp                  0      0.00%     76.33% # Class of executed instruction
system.cpu0.op_class::SimdFloatCvt                  0      0.00%     76.33% # Class of executed instruction
system.cpu0.op_class::SimdFloatDiv                  0      0.00%     76.33% # Class of executed instruction
system.cpu0.op_class::SimdFloatMisc                 0      0.00%     76.33% # Class of executed instruction
system.cpu0.op_class::SimdFloatMult                 0      0.00%     76.33% # Class of executed instruction
system.cpu0.op_class::SimdFloatMultAcc              0      0.00%     76.33% # Class of executed instruction
system.cpu0.op_class::SimdFloatSqrt                 0      0.00%     76.33% # Class of executed instruction
system.cpu0.op_class::MemRead                  437998     14.58%     90.91% # Class of executed instruction
system.cpu0.op_class::MemWrite                 272874      9.09%    100.00% # Class of executed instruction
system.cpu0.op_class::IprAccess                     0      0.00%    100.00% # Class of executed instruction
system.cpu0.op_class::InstPrefetch                  0      0.00%    100.00% # Class of executed instruction
system.cpu0.op_class::total                   3003320                       # Class of executed instruction
system.cpu1.apic_clk_domain.clock                8000                       # Clock period in ticks
system.cpu1.numCycles                      3347372263                       # number of cpu cycles simulated
system.cpu1.numWorkItemsStarted                     0                       # number of work items this cpu started
system.cpu1.numWorkItemsCompleted                   0                       # number of work items this cpu completed
system.cpu1.kern.inst.arm                           0                       # number of arm instructions executed
system.cpu1.kern.inst.quiesce                       0                       # number of quiesce instructions executed
system.cpu1.committedInsts                  717099589                       # Number of instructions committed
system.cpu1.committedOps                   1064294067                       # Number of ops (including micro ops) committed
system.cpu1.num_int_alu_accesses            463804306                       # Number of integer alu accesses
system.cpu1.num_fp_alu_accesses             708837843                       # Number of float alu accesses
system.cpu1.num_func_calls                     896749                       # number of times a function call or return occured
system.cpu1.num_conditional_control_insts     10827288                       # number of instructions that are conditional controls
system.cpu1.num_int_insts                   463804306                       # number of integer instructions
system.cpu1.num_fp_insts                    708837843                       # number of float instructions
system.cpu1.num_int_register_reads          971699048                       # number of times the integer registers were read
system.cpu1.num_int_register_writes         343700786                       # number of times the integer registers were written
system.cpu1.num_fp_register_reads          1593836311                       # number of times the floating registers were read
system.cpu1.num_fp_register_writes          654311799                       # number of times the floating registers were written
system.cpu1.num_cc_register_reads           111596579                       # number of times the CC registers were read
system.cpu1.num_cc_register_writes          201602345                       # number of times the CC registers were written
system.cpu1.num_mem_refs                    129322895                       # number of memory refs
system.cpu1.num_load_insts                   75425017                       # Number of load instructions
system.cpu1.num_store_insts                  53897878                       # Number of store instructions
system.cpu1.num_idle_cycles              10949931.528310                       # Number of idle cycles
system.cpu1.num_busy_cycles              3336422331.471690                       # Number of busy cycles
system.cpu1.not_idle_fraction                0.996729                       # Percentage of non-idle cycles
system.cpu1.idle_fraction                    0.003271                       # Percentage of idle cycles
system.cpu1.Branches                         12014504                       # Number of branches fetched
system.cpu1.op_class::No_OpClass               312779      0.03%      0.03% # Class of executed instruction
system.cpu1.op_class::IntAlu                431267614     40.52%     40.55% # Class of executed instruction
system.cpu1.op_class::IntMult                   88701      0.01%     40.56% # Class of executed instruction
system.cpu1.op_class::IntDiv                     1804      0.00%     40.56% # Class of executed instruction
system.cpu1.op_class::FloatAdd              503316796     47.29%     87.85% # Class of executed instruction
system.cpu1.op_class::FloatCmp                      0      0.00%     87.85% # Class of executed instruction
system.cpu1.op_class::FloatCvt                      0      0.00%     87.85% # Class of executed instruction
system.cpu1.op_class::FloatMult                     0      0.00%     87.85% # Class of executed instruction
system.cpu1.op_class::FloatDiv                      0      0.00%     87.85% # Class of executed instruction
system.cpu1.op_class::FloatSqrt                     0      0.00%     87.85% # Class of executed instruction
system.cpu1.op_class::SimdAdd                       0      0.00%     87.85% # Class of executed instruction
system.cpu1.op_class::SimdAddAcc                    0      0.00%     87.85% # Class of executed instruction
system.cpu1.op_class::SimdAlu                       0      0.00%     87.85% # Class of executed instruction
system.cpu1.op_class::SimdCmp                       0      0.00%     87.85% # Class of executed instruction
system.cpu1.op_class::SimdCvt                       0      0.00%     87.85% # Class of executed instruction
system.cpu1.op_class::SimdMisc                      0      0.00%     87.85% # Class of executed instruction
system.cpu1.op_class::SimdMult                      0      0.00%     87.85% # Class of executed instruction
system.cpu1.op_class::SimdMultAcc                   0      0.00%     87.85% # Class of executed instruction
system.cpu1.op_class::SimdShift                     0      0.00%     87.85% # Class of executed instruction
system.cpu1.op_class::SimdShiftAcc                  0      0.00%     87.85% # Class of executed instruction
system.cpu1.op_class::SimdSqrt                      0      0.00%     87.85% # Class of executed instruction
system.cpu1.op_class::SimdFloatAdd                  0      0.00%     87.85% # Class of executed instruction
system.cpu1.op_class::SimdFloatAlu                  0      0.00%     87.85% # Class of executed instruction
system.cpu1.op_class::SimdFloatCmp                  0      0.00%     87.85% # Class of executed instruction
system.cpu1.op_class::SimdFloatCvt                  0      0.00%     87.85% # Class of executed instruction
system.cpu1.op_class::SimdFloatDiv                  0      0.00%     87.85% # Class of executed instruction
system.cpu1.op_class::SimdFloatMisc                 0      0.00%     87.85% # Class of executed instruction
system.cpu1.op_class::SimdFloatMult                 0      0.00%     87.85% # Class of executed instruction
system.cpu1.op_class::SimdFloatMultAcc              0      0.00%     87.85% # Class of executed instruction
system.cpu1.op_class::SimdFloatSqrt                 0      0.00%     87.85% # Class of executed instruction
system.cpu1.op_class::MemRead                75425017      7.09%     94.94% # Class of executed instruction
system.cpu1.op_class::MemWrite               53897878      5.06%    100.00% # Class of executed instruction
system.cpu1.op_class::IprAccess                     0      0.00%    100.00% # Class of executed instruction
system.cpu1.op_class::InstPrefetch                  0      0.00%    100.00% # Class of executed instruction
system.cpu1.op_class::total                1064310589                       # Class of executed instruction
system.cpu2.apic_clk_domain.clock                8000                       # Clock period in ticks
system.cpu2.numCycles                      3345205499                       # number of cpu cycles simulated
system.cpu2.numWorkItemsStarted                     0                       # number of work items this cpu started
system.cpu2.numWorkItemsCompleted                   0                       # number of work items this cpu completed
system.cpu2.kern.inst.arm                           0                       # number of arm instructions executed
system.cpu2.kern.inst.quiesce                       0                       # number of quiesce instructions executed
system.cpu2.committedInsts                    1166371                       # Number of instructions committed
system.cpu2.committedOps                      2523178                       # Number of ops (including micro ops) committed
system.cpu2.num_int_alu_accesses              2467293                       # Number of integer alu accesses
system.cpu2.num_fp_alu_accesses                     0                       # Number of float alu accesses
system.cpu2.num_func_calls                      69650                       # number of times a function call or return occured
system.cpu2.num_conditional_control_insts       177250                       # number of instructions that are conditional controls
system.cpu2.num_int_insts                     2467293                       # number of integer instructions
system.cpu2.num_fp_insts                            0                       # number of float instructions
system.cpu2.num_int_register_reads            5013917                       # number of times the integer registers were read
system.cpu2.num_int_register_writes           2048540                       # number of times the integer registers were written
system.cpu2.num_fp_register_reads                   0                       # number of times the floating registers were read
system.cpu2.num_fp_register_writes                  0                       # number of times the floating registers were written
system.cpu2.num_cc_register_reads             1421622                       # number of times the CC registers were read
system.cpu2.num_cc_register_writes             744273                       # number of times the CC registers were written
system.cpu2.num_mem_refs                       600854                       # number of memory refs
system.cpu2.num_load_insts                     373854                       # Number of load instructions
system.cpu2.num_store_insts                    227000                       # Number of store instructions
system.cpu2.num_idle_cycles              3337218202.094074                       # Number of idle cycles
system.cpu2.num_busy_cycles              7987296.905926                       # Number of busy cycles
system.cpu2.not_idle_fraction                0.002388                       # Percentage of non-idle cycles
system.cpu2.idle_fraction                    0.997612                       # Percentage of idle cycles
system.cpu2.Branches                           269601                       # Number of branches fetched
system.cpu2.op_class::No_OpClass                47828      1.90%      1.90% # Class of executed instruction
system.cpu2.op_class::IntAlu                  1852453     73.42%     75.31% # Class of executed instruction
system.cpu2.op_class::IntMult                    5051      0.20%     75.51% # Class of executed instruction
system.cpu2.op_class::IntDiv                    16996      0.67%     76.19% # Class of executed instruction
system.cpu2.op_class::FloatAdd                      0      0.00%     76.19% # Class of executed instruction
system.cpu2.op_class::FloatCmp                      0      0.00%     76.19% # Class of executed instruction
system.cpu2.op_class::FloatCvt                      0      0.00%     76.19% # Class of executed instruction
system.cpu2.op_class::FloatMult                     0      0.00%     76.19% # Class of executed instruction
system.cpu2.op_class::FloatDiv                      0      0.00%     76.19% # Class of executed instruction
system.cpu2.op_class::FloatSqrt                     0      0.00%     76.19% # Class of executed instruction
system.cpu2.op_class::SimdAdd                       0      0.00%     76.19% # Class of executed instruction
system.cpu2.op_class::SimdAddAcc                    0      0.00%     76.19% # Class of executed instruction
system.cpu2.op_class::SimdAlu                       0      0.00%     76.19% # Class of executed instruction
system.cpu2.op_class::SimdCmp                       0      0.00%     76.19% # Class of executed instruction
system.cpu2.op_class::SimdCvt                       0      0.00%     76.19% # Class of executed instruction
system.cpu2.op_class::SimdMisc                      0      0.00%     76.19% # Class of executed instruction
system.cpu2.op_class::SimdMult                      0      0.00%     76.19% # Class of executed instruction
system.cpu2.op_class::SimdMultAcc                   0      0.00%     76.19% # Class of executed instruction
system.cpu2.op_class::SimdShift                     0      0.00%     76.19% # Class of executed instruction
system.cpu2.op_class::SimdShiftAcc                  0      0.00%     76.19% # Class of executed instruction
system.cpu2.op_class::SimdSqrt                      0      0.00%     76.19% # Class of executed instruction
system.cpu2.op_class::SimdFloatAdd                  0      0.00%     76.19% # Class of executed instruction
system.cpu2.op_class::SimdFloatAlu                  0      0.00%     76.19% # Class of executed instruction
system.cpu2.op_class::SimdFloatCmp                  0      0.00%     76.19% # Class of executed instruction
system.cpu2.op_class::SimdFloatCvt                  0      0.00%     76.19% # Class of executed instruction
system.cpu2.op_class::SimdFloatDiv                  0      0.00%     76.19% # Class of executed instruction
system.cpu2.op_class::SimdFloatMisc                 0      0.00%     76.19% # Class of executed instruction
system.cpu2.op_class::SimdFloatMult                 0      0.00%     76.19% # Class of executed instruction
system.cpu2.op_class::SimdFloatMultAcc              0      0.00%     76.19% # Class of executed instruction
system.cpu2.op_class::SimdFloatSqrt                 0      0.00%     76.19% # Class of executed instruction
system.cpu2.op_class::MemRead                  373854     14.82%     91.00% # Class of executed instruction
system.cpu2.op_class::MemWrite                 227000      9.00%    100.00% # Class of executed instruction
system.cpu2.op_class::IprAccess                     0      0.00%    100.00% # Class of executed instruction
system.cpu2.op_class::InstPrefetch                  0      0.00%    100.00% # Class of executed instruction
system.cpu2.op_class::total                   2523182                       # Class of executed instruction
system.cpu3.apic_clk_domain.clock                8000                       # Clock period in ticks
system.cpu3.numCycles                      3345519278                       # number of cpu cycles simulated
system.cpu3.numWorkItemsStarted                     0                       # number of work items this cpu started
system.cpu3.numWorkItemsCompleted                   0                       # number of work items this cpu completed
system.cpu3.kern.inst.arm                           0                       # number of arm instructions executed
system.cpu3.kern.inst.quiesce                       0                       # number of quiesce instructions executed
system.cpu3.committedInsts                    3727222                       # Number of instructions committed
system.cpu3.committedOps                      7446744                       # Number of ops (including micro ops) committed
system.cpu3.num_int_alu_accesses              7313487                       # Number of integer alu accesses
system.cpu3.num_fp_alu_accesses                  1778                       # Number of float alu accesses
system.cpu3.num_func_calls                     193440                       # number of times a function call or return occured
system.cpu3.num_conditional_control_insts       630465                       # number of instructions that are conditional controls
system.cpu3.num_int_insts                     7313487                       # number of integer instructions
system.cpu3.num_fp_insts                         1778                       # number of float instructions
system.cpu3.num_int_register_reads           14545491                       # number of times the integer registers were read
system.cpu3.num_int_register_writes           5949072                       # number of times the integer registers were written
system.cpu3.num_fp_register_reads                2988                       # number of times the floating registers were read
system.cpu3.num_fp_register_writes               1416                       # number of times the floating registers were written
system.cpu3.num_cc_register_reads             4724999                       # number of times the CC registers were read
system.cpu3.num_cc_register_writes            2543730                       # number of times the CC registers were written
system.cpu3.num_mem_refs                      1681229                       # number of memory refs
system.cpu3.num_load_insts                    1091852                       # Number of load instructions
system.cpu3.num_store_insts                    589377                       # Number of store instructions
system.cpu3.num_idle_cycles              3328213218.366677                       # Number of idle cycles
system.cpu3.num_busy_cycles              17306059.633323                       # Number of busy cycles
system.cpu3.not_idle_fraction                0.005173                       # Percentage of non-idle cycles
system.cpu3.idle_fraction                    0.994827                       # Percentage of idle cycles
system.cpu3.Branches                           857863                       # Number of branches fetched
system.cpu3.op_class::No_OpClass                52126      0.70%      0.70% # Class of executed instruction
system.cpu3.op_class::IntAlu                  5688581     76.39%     77.09% # Class of executed instruction
system.cpu3.op_class::IntMult                    6108      0.08%     77.17% # Class of executed instruction
system.cpu3.op_class::IntDiv                    17446      0.23%     77.41% # Class of executed instruction
system.cpu3.op_class::FloatAdd                   1344      0.02%     77.42% # Class of executed instruction
system.cpu3.op_class::FloatCmp                      0      0.00%     77.42% # Class of executed instruction
system.cpu3.op_class::FloatCvt                      0      0.00%     77.42% # Class of executed instruction
system.cpu3.op_class::FloatMult                     0      0.00%     77.42% # Class of executed instruction
system.cpu3.op_class::FloatDiv                      0      0.00%     77.42% # Class of executed instruction
system.cpu3.op_class::FloatSqrt                     0      0.00%     77.42% # Class of executed instruction
system.cpu3.op_class::SimdAdd                       0      0.00%     77.42% # Class of executed instruction
system.cpu3.op_class::SimdAddAcc                    0      0.00%     77.42% # Class of executed instruction
system.cpu3.op_class::SimdAlu                       0      0.00%     77.42% # Class of executed instruction
system.cpu3.op_class::SimdCmp                       0      0.00%     77.42% # Class of executed instruction
system.cpu3.op_class::SimdCvt                       0      0.00%     77.42% # Class of executed instruction
system.cpu3.op_class::SimdMisc                      0      0.00%     77.42% # Class of executed instruction
system.cpu3.op_class::SimdMult                      0      0.00%     77.42% # Class of executed instruction
system.cpu3.op_class::SimdMultAcc                   0      0.00%     77.42% # Class of executed instruction
system.cpu3.op_class::SimdShift                     0      0.00%     77.42% # Class of executed instruction
system.cpu3.op_class::SimdShiftAcc                  0      0.00%     77.42% # Class of executed instruction
system.cpu3.op_class::SimdSqrt                      0      0.00%     77.42% # Class of executed instruction
system.cpu3.op_class::SimdFloatAdd                  0      0.00%     77.42% # Class of executed instruction
system.cpu3.op_class::SimdFloatAlu                  0      0.00%     77.42% # Class of executed instruction
system.cpu3.op_class::SimdFloatCmp                  0      0.00%     77.42% # Class of executed instruction
system.cpu3.op_class::SimdFloatCvt                  0      0.00%     77.42% # Class of executed instruction
system.cpu3.op_class::SimdFloatDiv                  0      0.00%     77.42% # Class of executed instruction
system.cpu3.op_class::SimdFloatMisc                 0      0.00%     77.42% # Class of executed instruction
system.cpu3.op_class::SimdFloatMult                 0      0.00%     77.42% # Class of executed instruction
system.cpu3.op_class::SimdFloatMultAcc              0      0.00%     77.42% # Class of executed instruction
system.cpu3.op_class::SimdFloatSqrt                 0      0.00%     77.42% # Class of executed instruction
system.cpu3.op_class::MemRead                 1091852     14.66%     92.09% # Class of executed instruction
system.cpu3.op_class::MemWrite                 589377      7.91%    100.00% # Class of executed instruction
system.cpu3.op_class::IprAccess                     0      0.00%    100.00% # Class of executed instruction
system.cpu3.op_class::InstPrefetch                  0      0.00%    100.00% # Class of executed instruction
system.cpu3.op_class::total                   7446834                       # Class of executed instruction
system.iobus.trans_dist::ReadReq                   82                       # Transaction distribution
system.iobus.trans_dist::ReadResp                  82                       # Transaction distribution
system.iobus.trans_dist::WriteReq                1736                       # Transaction distribution
system.iobus.trans_dist::WriteResp               1736                       # Transaction distribution
system.iobus.trans_dist::MessageReq                12                       # Transaction distribution
system.iobus.trans_dist::MessageResp               12                       # Transaction distribution
system.iobus.pkt_count_system.pc.south_bridge.io_apic.int_master::system.ruby.l1_cntrl0.sequencer.pio-slave-port            2                       # Packet count per connected master and slave (bytes)
system.iobus.pkt_count_system.pc.south_bridge.io_apic.int_master::system.ruby.l1_cntrl1.sequencer.pio-slave-port            4                       # Packet count per connected master and slave (bytes)
system.iobus.pkt_count_system.pc.south_bridge.io_apic.int_master::system.ruby.l1_cntrl2.sequencer.pio-slave-port            2                       # Packet count per connected master and slave (bytes)
system.iobus.pkt_count_system.pc.south_bridge.io_apic.int_master::system.ruby.l1_cntrl3.sequencer.pio-slave-port            2                       # Packet count per connected master and slave (bytes)
system.iobus.pkt_count_system.pc.south_bridge.io_apic.int_master::total           10                       # Packet count per connected master and slave (bytes)
system.iobus.pkt_count_system.ruby.l1_cntrl0.sequencer.mem-master-port::system.pc.south_bridge.io_apic.pio            6                       # Packet count per connected master and slave (bytes)
system.iobus.pkt_count_system.ruby.l1_cntrl0.sequencer.mem-master-port::system.pc.com_1.pio           22                       # Packet count per connected master and slave (bytes)
system.iobus.pkt_count_system.ruby.l1_cntrl0.sequencer.mem-master-port::system.ruby.l1_cntrl0.sequencer.pio-slave-port          850                       # Packet count per connected master and slave (bytes)
system.iobus.pkt_count_system.ruby.l1_cntrl0.sequencer.mem-master-port::system.ruby.l1_cntrl1.sequencer.pio-slave-port            2                       # Packet count per connected master and slave (bytes)
system.iobus.pkt_count_system.ruby.l1_cntrl0.sequencer.mem-master-port::total          880                       # Packet count per connected master and slave (bytes)
system.iobus.pkt_count_system.ruby.l1_cntrl1.sequencer.mem-master-port::system.pc.south_bridge.io_apic.pio           14                       # Packet count per connected master and slave (bytes)
system.iobus.pkt_count_system.ruby.l1_cntrl1.sequencer.mem-master-port::system.pc.com_1.pio          162                       # Packet count per connected master and slave (bytes)
system.iobus.pkt_count_system.ruby.l1_cntrl1.sequencer.mem-master-port::system.ruby.l1_cntrl0.sequencer.pio-slave-port            2                       # Packet count per connected master and slave (bytes)
system.iobus.pkt_count_system.ruby.l1_cntrl1.sequencer.mem-master-port::system.ruby.l1_cntrl1.sequencer.pio-slave-port          856                       # Packet count per connected master and slave (bytes)
system.iobus.pkt_count_system.ruby.l1_cntrl1.sequencer.mem-master-port::system.ruby.l1_cntrl2.sequencer.pio-slave-port            2                       # Packet count per connected master and slave (bytes)
system.iobus.pkt_count_system.ruby.l1_cntrl1.sequencer.mem-master-port::total         1036                       # Packet count per connected master and slave (bytes)
system.iobus.pkt_count_system.ruby.l1_cntrl2.sequencer.mem-master-port::system.pc.south_bridge.io_apic.pio            8                       # Packet count per connected master and slave (bytes)
system.iobus.pkt_count_system.ruby.l1_cntrl2.sequencer.mem-master-port::system.ruby.l1_cntrl2.sequencer.pio-slave-port          850                       # Packet count per connected master and slave (bytes)
system.iobus.pkt_count_system.ruby.l1_cntrl2.sequencer.mem-master-port::system.ruby.l1_cntrl3.sequencer.pio-slave-port            2                       # Packet count per connected master and slave (bytes)
system.iobus.pkt_count_system.ruby.l1_cntrl2.sequencer.mem-master-port::total          860                       # Packet count per connected master and slave (bytes)
system.iobus.pkt_count_system.ruby.l1_cntrl3.sequencer.mem-master-port::system.pc.south_bridge.io_apic.pio            8                       # Packet count per connected master and slave (bytes)
system.iobus.pkt_count_system.ruby.l1_cntrl3.sequencer.mem-master-port::system.ruby.l1_cntrl0.sequencer.pio-slave-port            2                       # Packet count per connected master and slave (bytes)
system.iobus.pkt_count_system.ruby.l1_cntrl3.sequencer.mem-master-port::system.ruby.l1_cntrl1.sequencer.pio-slave-port            2                       # Packet count per connected master and slave (bytes)
system.iobus.pkt_count_system.ruby.l1_cntrl3.sequencer.mem-master-port::system.ruby.l1_cntrl2.sequencer.pio-slave-port            2                       # Packet count per connected master and slave (bytes)
system.iobus.pkt_count_system.ruby.l1_cntrl3.sequencer.mem-master-port::system.ruby.l1_cntrl3.sequencer.pio-slave-port          860                       # Packet count per connected master and slave (bytes)
system.iobus.pkt_count_system.ruby.l1_cntrl3.sequencer.mem-master-port::total          874                       # Packet count per connected master and slave (bytes)
system.iobus.pkt_count::total                    3660                       # Packet count per connected master and slave (bytes)
system.iobus.pkt_size_system.pc.south_bridge.io_apic.int_master::system.ruby.l1_cntrl0.sequencer.pio-slave-port            4                       # Cumulative packet size per connected master and slave (bytes)
system.iobus.pkt_size_system.pc.south_bridge.io_apic.int_master::system.ruby.l1_cntrl1.sequencer.pio-slave-port            8                       # Cumulative packet size per connected master and slave (bytes)
system.iobus.pkt_size_system.pc.south_bridge.io_apic.int_master::system.ruby.l1_cntrl2.sequencer.pio-slave-port            4                       # Cumulative packet size per connected master and slave (bytes)
system.iobus.pkt_size_system.pc.south_bridge.io_apic.int_master::system.ruby.l1_cntrl3.sequencer.pio-slave-port            4                       # Cumulative packet size per connected master and slave (bytes)
system.iobus.pkt_size_system.pc.south_bridge.io_apic.int_master::total           20                       # Cumulative packet size per connected master and slave (bytes)
system.iobus.pkt_size_system.ruby.l1_cntrl0.sequencer.mem-master-port::system.pc.south_bridge.io_apic.pio           12                       # Cumulative packet size per connected master and slave (bytes)
system.iobus.pkt_size_system.ruby.l1_cntrl0.sequencer.mem-master-port::system.pc.com_1.pio           11                       # Cumulative packet size per connected master and slave (bytes)
system.iobus.pkt_size_system.ruby.l1_cntrl0.sequencer.mem-master-port::system.ruby.l1_cntrl0.sequencer.pio-slave-port         1700                       # Cumulative packet size per connected master and slave (bytes)
system.iobus.pkt_size_system.ruby.l1_cntrl0.sequencer.mem-master-port::system.ruby.l1_cntrl1.sequencer.pio-slave-port            4                       # Cumulative packet size per connected master and slave (bytes)
system.iobus.pkt_size_system.ruby.l1_cntrl0.sequencer.mem-master-port::total         1727                       # Cumulative packet size per connected master and slave (bytes)
system.iobus.pkt_size_system.ruby.l1_cntrl1.sequencer.mem-master-port::system.pc.south_bridge.io_apic.pio           28                       # Cumulative packet size per connected master and slave (bytes)
system.iobus.pkt_size_system.ruby.l1_cntrl1.sequencer.mem-master-port::system.pc.com_1.pio           81                       # Cumulative packet size per connected master and slave (bytes)
system.iobus.pkt_size_system.ruby.l1_cntrl1.sequencer.mem-master-port::system.ruby.l1_cntrl0.sequencer.pio-slave-port            4                       # Cumulative packet size per connected master and slave (bytes)
system.iobus.pkt_size_system.ruby.l1_cntrl1.sequencer.mem-master-port::system.ruby.l1_cntrl1.sequencer.pio-slave-port         1712                       # Cumulative packet size per connected master and slave (bytes)
system.iobus.pkt_size_system.ruby.l1_cntrl1.sequencer.mem-master-port::system.ruby.l1_cntrl2.sequencer.pio-slave-port            4                       # Cumulative packet size per connected master and slave (bytes)
system.iobus.pkt_size_system.ruby.l1_cntrl1.sequencer.mem-master-port::total         1829                       # Cumulative packet size per connected master and slave (bytes)
system.iobus.pkt_size_system.ruby.l1_cntrl2.sequencer.mem-master-port::system.pc.south_bridge.io_apic.pio           16                       # Cumulative packet size per connected master and slave (bytes)
system.iobus.pkt_size_system.ruby.l1_cntrl2.sequencer.mem-master-port::system.ruby.l1_cntrl2.sequencer.pio-slave-port         1700                       # Cumulative packet size per connected master and slave (bytes)
system.iobus.pkt_size_system.ruby.l1_cntrl2.sequencer.mem-master-port::system.ruby.l1_cntrl3.sequencer.pio-slave-port            4                       # Cumulative packet size per connected master and slave (bytes)
system.iobus.pkt_size_system.ruby.l1_cntrl2.sequencer.mem-master-port::total         1720                       # Cumulative packet size per connected master and slave (bytes)
system.iobus.pkt_size_system.ruby.l1_cntrl3.sequencer.mem-master-port::system.pc.south_bridge.io_apic.pio           16                       # Cumulative packet size per connected master and slave (bytes)
system.iobus.pkt_size_system.ruby.l1_cntrl3.sequencer.mem-master-port::system.ruby.l1_cntrl0.sequencer.pio-slave-port            4                       # Cumulative packet size per connected master and slave (bytes)
system.iobus.pkt_size_system.ruby.l1_cntrl3.sequencer.mem-master-port::system.ruby.l1_cntrl1.sequencer.pio-slave-port            4                       # Cumulative packet size per connected master and slave (bytes)
system.iobus.pkt_size_system.ruby.l1_cntrl3.sequencer.mem-master-port::system.ruby.l1_cntrl2.sequencer.pio-slave-port            4                       # Cumulative packet size per connected master and slave (bytes)
system.iobus.pkt_size_system.ruby.l1_cntrl3.sequencer.mem-master-port::system.ruby.l1_cntrl3.sequencer.pio-slave-port         1720                       # Cumulative packet size per connected master and slave (bytes)
system.iobus.pkt_size_system.ruby.l1_cntrl3.sequencer.mem-master-port::total         1748                       # Cumulative packet size per connected master and slave (bytes)
system.iobus.pkt_size::total                     7044                       # Cumulative packet size per connected master and slave (bytes)
system.iobus.reqLayer8.occupancy                31996                       # Layer occupancy (ticks)
system.iobus.reqLayer8.utilization                0.0                       # Layer utilization (%)
system.iobus.reqLayer12.occupancy              120500                       # Layer occupancy (ticks)
system.iobus.reqLayer12.utilization               0.0                       # Layer utilization (%)
system.iobus.reqLayer17.occupancy              986999                       # Layer occupancy (ticks)
system.iobus.reqLayer17.utilization               0.0                       # Layer utilization (%)
system.iobus.reqLayer18.occupancy             1084285                       # Layer occupancy (ticks)
system.iobus.reqLayer18.utilization               0.0                       # Layer utilization (%)
system.iobus.reqLayer19.occupancy              981500                       # Layer occupancy (ticks)
system.iobus.reqLayer19.utilization               0.0                       # Layer utilization (%)
system.iobus.reqLayer20.occupancy              986998                       # Layer occupancy (ticks)
system.iobus.reqLayer20.utilization               0.0                       # Layer utilization (%)
system.iobus.respLayer0.occupancy                6000                       # Layer occupancy (ticks)
system.iobus.respLayer0.utilization               0.0                       # Layer utilization (%)
system.iobus.respLayer2.occupancy              662500                       # Layer occupancy (ticks)
system.iobus.respLayer2.utilization               0.0                       # Layer utilization (%)
system.iobus.respLayer4.occupancy              796000                       # Layer occupancy (ticks)
system.iobus.respLayer4.utilization               0.0                       # Layer utilization (%)
system.iobus.respLayer6.occupancy              645500                       # Layer occupancy (ticks)
system.iobus.respLayer6.utilization               0.0                       # Layer utilization (%)
system.iobus.respLayer8.occupancy              657000                       # Layer occupancy (ticks)
system.iobus.respLayer8.utilization               0.0                       # Layer utilization (%)
system.pc.south_bridge.ide.disks.dma_read_full_pages            0                       # Number of full page size DMA reads (not PRD).
system.pc.south_bridge.ide.disks.dma_read_bytes            0                       # Number of bytes transfered via DMA reads (not PRD).
system.pc.south_bridge.ide.disks.dma_read_txs            0                       # Number of DMA read transactions (not PRD).
system.pc.south_bridge.ide.disks.dma_write_full_pages            0                       # Number of full page size DMA writes.
system.pc.south_bridge.ide.disks.dma_write_bytes            0                       # Number of bytes transfered via DMA writes.
system.pc.south_bridge.ide.disks.dma_write_txs            0                       # Number of DMA write transactions.
system.ruby.clk_domain.clock                      500                       # Clock period in ticks
system.ruby.delayHist::bucket_size                  8                       # delay histogram for all message
system.ruby.delayHist::max_bucket                  79                       # delay histogram for all message
system.ruby.delayHist::samples              112169824                       # delay histogram for all message
system.ruby.delayHist::mean                  1.883723                       # delay histogram for all message
system.ruby.delayHist::stdev                 5.157320                       # delay histogram for all message
system.ruby.delayHist                    |    98972169     88.23%     88.23% |       23827      0.02%     88.26% |    13168246     11.74%    100.00% |        1659      0.00%    100.00% |        3907      0.00%    100.00% |           2      0.00%    100.00% |          14      0.00%    100.00% |           0      0.00%    100.00% |           0      0.00%    100.00% |           0      0.00%    100.00% # delay histogram for all message
system.ruby.delayHist::total                112169824                       # delay histogram for all message
system.ruby.outstanding_req_hist_seqr::bucket_size            1                      
system.ruby.outstanding_req_hist_seqr::max_bucket            9                      
system.ruby.outstanding_req_hist_seqr::samples   1225318791                      
system.ruby.outstanding_req_hist_seqr::mean     1.000000                      
system.ruby.outstanding_req_hist_seqr::gmean     1.000000                      
system.ruby.outstanding_req_hist_seqr::stdev     0.000169                      
system.ruby.outstanding_req_hist_seqr    |           0      0.00%      0.00% |  1225318756    100.00%    100.00% |          35      0.00%    100.00% |           0      0.00%    100.00% |           0      0.00%    100.00% |           0      0.00%    100.00% |           0      0.00%    100.00% |           0      0.00%    100.00% |           0      0.00%    100.00% |           0      0.00%    100.00%
system.ruby.outstanding_req_hist_seqr::total   1225318791                      
system.ruby.latency_hist_seqr::bucket_size          256                      
system.ruby.latency_hist_seqr::max_bucket         2559                      
system.ruby.latency_hist_seqr::samples     1225318791                      
system.ruby.latency_hist_seqr::mean          1.749647                      
system.ruby.latency_hist_seqr::gmean         1.060193                      
system.ruby.latency_hist_seqr::stdev        10.723902                      
system.ruby.latency_hist_seqr            |  1225066643     99.98%     99.98% |      145030      0.01%     99.99% |       92014      0.01%    100.00% |       10281      0.00%    100.00% |        3767      0.00%    100.00% |         819      0.00%    100.00% |         198      0.00%    100.00% |          39      0.00%    100.00% |           0      0.00%    100.00% |           0      0.00%    100.00%
system.ruby.latency_hist_seqr::total       1225318791                      
system.ruby.hit_latency_hist_seqr::bucket_size            1                      
system.ruby.hit_latency_hist_seqr::max_bucket            9                      
system.ruby.hit_latency_hist_seqr::samples   1204043659                      
system.ruby.hit_latency_hist_seqr::mean             1                      
system.ruby.hit_latency_hist_seqr::gmean            1                      
[...]
system.ruby.DMA_Controller.ReadRequest::total            2                      
system.ruby.DMA_Controller.WriteRequest  |          64    100.00%    100.00% |           0      0.00%    100.00%
system.ruby.DMA_Controller.WriteRequest::total           64                      
system.ruby.DMA_Controller.Data          |           2    100.00%    100.00% |           0      0.00%    100.00%
system.ruby.DMA_Controller.Data::total              2                      
system.ruby.DMA_Controller.Ack           |          64    100.00%    100.00% |           0      0.00%    100.00%
system.ruby.DMA_Controller.Ack::total              64                      
system.ruby.DMA_Controller.READY.ReadRequest |           2    100.00%    100.00% |           0      0.00%    100.00%
system.ruby.DMA_Controller.READY.ReadRequest::total            2                      
system.ruby.DMA_Controller.READY.WriteRequest |          64    100.00%    100.00% |           0      0.00%    100.00%
system.ruby.DMA_Controller.READY.WriteRequest::total           64                      
system.ruby.DMA_Controller.BUSY_RD.Data  |           2    100.00%    100.00% |           0      0.00%    100.00%
system.ruby.DMA_Controller.BUSY_RD.Data::total            2                      
system.ruby.DMA_Controller.BUSY_WR.Ack   |          64    100.00%    100.00% |           0      0.00%    100.00%
system.ruby.DMA_Controller.BUSY_WR.Ack::total           64                      
system.ruby.L1Cache_Controller.Load      |      607956      0.66%      0.66% |    87294314     94.96%     95.62% |      851052      0.93%     96.55% |     3175851      3.45%    100.00%
system.ruby.L1Cache_Controller.Load::total     91929173                      
system.ruby.L1Cache_Controller.Ifetch    |     2810224      0.26%      0.26% |  1051532260     97.58%     97.84% |     4166660      0.39%     98.23% |    19083450      1.77%    100.00%
system.ruby.L1Cache_Controller.Ifetch::total   1077592594                      
system.ruby.L1Cache_Controller.Store     |      461583      0.55%      0.55% |    80057974     95.74%     96.29% |      672040      0.80%     97.09% |     2429920      2.91%    100.00%
system.ruby.L1Cache_Controller.Store::total     83621517                      
system.ruby.L1Cache_Controller.Inv       |       35966     26.64%     26.64% |       29149     21.59%     48.24% |       33353     24.71%     72.94% |       36523     27.06%    100.00%
system.ruby.L1Cache_Controller.Inv::total       134991                      
system.ruby.L1Cache_Controller.L1_Replacement |       41801      0.20%      0.20% |    21117525     98.85%     99.05% |       45808      0.21%     99.26% |      157451      0.74%    100.00%
system.ruby.L1Cache_Controller.L1_Replacement::total     21362585                      
system.ruby.L1Cache_Controller.Fwd_GETX  |         789     22.13%     22.13% |         549     15.40%     37.52% |        1185     33.23%     70.75% |        1043     29.25%    100.00%
system.ruby.L1Cache_Controller.Fwd_GETX::total         3566                      
system.ruby.L1Cache_Controller.Fwd_GETS  |        4399     34.59%     34.59% |        1488     11.70%     46.29% |        4978     39.14%     85.42% |        1854     14.58%    100.00%
system.ruby.L1Cache_Controller.Fwd_GETS::total        12719                      
system.ruby.L1Cache_Controller.Data      |          31      3.03%      3.03% |         558     54.60%     57.63% |         312     30.53%     88.16% |         121     11.84%    100.00%
system.ruby.L1Cache_Controller.Data::total         1022                      
system.ruby.L1Cache_Controller.Data_Exclusive |       12529      0.10%      0.10% |    11823837     99.04%     99.15% |       17200      0.14%     99.29% |       84359      0.71%    100.00%
system.ruby.L1Cache_Controller.Data_Exclusive::total     11937925                      
system.ruby.L1Cache_Controller.DataS_fromL1 |        4417     34.73%     34.73% |        1378     10.83%     45.56% |        2033     15.98%     61.55% |        4891     38.45%    100.00%
system.ruby.L1Cache_Controller.DataS_fromL1::total        12719                      
system.ruby.L1Cache_Controller.Data_all_Acks |       52331      0.55%      0.55% |     9309814     97.89%     98.44% |       52873      0.56%     99.00% |       95143      1.00%    100.00%
system.ruby.L1Cache_Controller.Data_all_Acks::total      9510161                      
system.ruby.L1Cache_Controller.Ack       |        6428     46.73%     46.73% |        2842     20.66%     67.39% |        1657     12.05%     79.44% |        2828     20.56%    100.00%
system.ruby.L1Cache_Controller.Ack::total        13755                      
system.ruby.L1Cache_Controller.Ack_all   |        2799     33.58%     33.58% |        1991     23.88%     57.46% |        1411     16.93%     74.39% |        2135     25.61%    100.00%
system.ruby.L1Cache_Controller.Ack_all::total         8336                      
system.ruby.L1Cache_Controller.WB_Ack    |        9261      0.04%      0.04% |    21023957     99.32%     99.36% |       14773      0.07%     99.43% |      120823      0.57%    100.00%
system.ruby.L1Cache_Controller.WB_Ack::total     21168814                      
system.ruby.L1Cache_Controller.NP.Load   |       12502      0.10%      0.10% |    11837003     99.04%     99.14% |       15094      0.13%     99.27% |       87546      0.73%    100.00%
system.ruby.L1Cache_Controller.NP.Load::total     11952145                      
system.ruby.L1Cache_Controller.NP.Ifetch |       25354     16.28%     16.28% |       79035     50.76%     67.04% |       23409     15.03%     82.08% |       27906     17.92%    100.00%
system.ruby.L1Cache_Controller.NP.Ifetch::total       155704                      
system.ruby.L1Cache_Controller.NP.Store  |        4128      0.04%      0.04% |     9201487     99.42%     99.47% |        7370      0.08%     99.55% |       41999      0.45%    100.00%
system.ruby.L1Cache_Controller.NP.Store::total      9254984                      
system.ruby.L1Cache_Controller.NP.Inv    |        4204     18.90%     18.90% |        8905     40.04%     58.94% |        3125     14.05%     72.99% |        6007     27.01%    100.00%
system.ruby.L1Cache_Controller.NP.Inv::total        22241                      
system.ruby.L1Cache_Controller.I.Load    |        7509     28.02%     28.02% |        1007      3.76%     31.78% |        9144     34.12%     65.90% |        9137     34.10%    100.00%
system.ruby.L1Cache_Controller.I.Load::total        26797                      
system.ruby.L1Cache_Controller.I.Ifetch  |       14992     27.83%     27.83% |       12291     22.82%     50.64% |       13076     24.27%     74.92% |       13513     25.08%    100.00%
system.ruby.L1Cache_Controller.I.Ifetch::total        53872                      
system.ruby.L1Cache_Controller.I.Store   |        4823     26.32%     26.32% |        4764     26.00%     52.33% |        4324     23.60%     75.93% |        4411     24.07%    100.00%
system.ruby.L1Cache_Controller.I.Store::total        18322                      
system.ruby.L1Cache_Controller.I.L1_Replacement |        5108     29.81%     29.81% |        2673     15.60%     45.41% |        4857     28.35%     73.76% |        4496     26.24%    100.00%
system.ruby.L1Cache_Controller.I.L1_Replacement::total        17134                      
system.ruby.L1Cache_Controller.S.Load    |       90494     14.21%     14.21% |      144461     22.68%     36.88% |      120054     18.85%     55.73% |      282007     44.27%    100.00%
system.ruby.L1Cache_Controller.S.Load::total       637016                      
system.ruby.L1Cache_Controller.S.Ifetch  |     2769878      0.26%      0.26% |  1051440932     97.59%     97.85% |     4130175      0.38%     98.23% |    19042030      1.77%    100.00%
system.ruby.L1Cache_Controller.S.Ifetch::total   1077383015                      
system.ruby.L1Cache_Controller.S.Store   |        2768     37.83%     37.83% |        1433     19.58%     57.41% |        1100     15.03%     72.45% |        2016     27.55%    100.00%
system.ruby.L1Cache_Controller.S.Store::total         7317                      
system.ruby.L1Cache_Controller.S.Inv     |       21949     27.65%     27.65% |       14753     18.59%     46.24% |       21219     26.73%     72.97% |       21452     27.03%    100.00%
system.ruby.L1Cache_Controller.S.Inv::total        79373                      
system.ruby.L1Cache_Controller.S.L1_Replacement |       27432     15.53%     15.53% |       90895     51.46%     66.99% |       26178     14.82%     81.81% |       32132     18.19%    100.00%
system.ruby.L1Cache_Controller.S.L1_Replacement::total       176637                      
system.ruby.L1Cache_Controller.E.Load    |       91957      0.15%      0.15% |    62432666     98.95%     99.09% |      137973      0.22%     99.31% |      433761      0.69%    100.00%
system.ruby.L1Cache_Controller.E.Load::total     63096357                      
system.ruby.L1Cache_Controller.E.Store   |        3645      0.09%      0.09% |     3940103     98.38%     98.47% |        4282      0.11%     98.58% |       56847      1.42%    100.00%
system.ruby.L1Cache_Controller.E.Store::total      4004877                      
system.ruby.L1Cache_Controller.E.Inv     |        3457     32.63%     32.63% |         486      4.59%     37.22% |        3281     30.97%     68.18% |        3371     31.82%    100.00%
system.ruby.L1Cache_Controller.E.Inv::total        10595                      
system.ruby.L1Cache_Controller.E.L1_Replacement |        3693      0.05%      0.05% |     7882746     99.59%     99.63% |        5533      0.07%     99.70% |       23562      0.30%    100.00%
system.ruby.L1Cache_Controller.E.L1_Replacement::total      7915534                      
system.ruby.L1Cache_Controller.E.Fwd_GETX |         435     30.10%     30.10% |         164     11.35%     41.45% |         750     51.90%     93.36% |          96      6.64%    100.00%
system.ruby.L1Cache_Controller.E.Fwd_GETX::total         1445                      
system.ruby.L1Cache_Controller.E.Fwd_GETS |        1292     23.80%     23.80% |         331      6.10%     29.90% |        3305     60.89%     90.79% |         500      9.21%    100.00%
system.ruby.L1Cache_Controller.E.Fwd_GETS::total         5428                      
system.ruby.L1Cache_Controller.M.Load    |      405494      2.50%      2.50% |    12879177     79.42%     81.92% |      568787      3.51%     85.43% |     2363400     14.57%    100.00%
system.ruby.L1Cache_Controller.M.Load::total     16216858                      
system.ruby.L1Cache_Controller.M.Store   |      446219      0.63%      0.63% |    66910187     95.13%     95.76% |      654964      0.93%     96.69% |     2324647      3.31%    100.00%
system.ruby.L1Cache_Controller.M.Store::total     70336017                      
system.ruby.L1Cache_Controller.M.Inv     |        6356     27.90%     27.90% |        5005     21.97%     49.87% |        5727     25.14%     75.02% |        5691     24.98%    100.00%
system.ruby.L1Cache_Controller.M.Inv::total        22779                      
system.ruby.L1Cache_Controller.M.L1_Replacement |        5568      0.04%      0.04% |    13141211     99.15%     99.20% |        9240      0.07%     99.27% |       97261      0.73%    100.00%
system.ruby.L1Cache_Controller.M.L1_Replacement::total     13253280                      
system.ruby.L1Cache_Controller.M.Fwd_GETX |         354     16.69%     16.69% |         385     18.15%     34.84% |         435     20.51%     55.35% |         947     44.65%    100.00%
system.ruby.L1Cache_Controller.M.Fwd_GETX::total         2121                      
system.ruby.L1Cache_Controller.M.Fwd_GETS |        3107     42.61%     42.61% |        1157     15.87%     58.48% |        1673     22.95%     81.43% |        1354     18.57%    100.00%
system.ruby.L1Cache_Controller.M.Fwd_GETS::total         7291                      
system.ruby.L1Cache_Controller.IS.Data_Exclusive |       12529      0.10%      0.10% |    11823837     99.04%     99.15% |       17200      0.14%     99.29% |       84359      0.71%    100.00%
system.ruby.L1Cache_Controller.IS.Data_Exclusive::total     11937925                      
system.ruby.L1Cache_Controller.IS.DataS_fromL1 |        4417     34.73%     34.73% |        1378     10.83%     45.56% |        2033     15.98%     61.55% |        4891     38.45%    100.00%
system.ruby.L1Cache_Controller.IS.DataS_fromL1::total        12719                      
system.ruby.L1Cache_Controller.IS.Data_all_Acks |       43411     18.25%     18.25% |      104121     43.77%     62.02% |       41490     17.44%     79.46% |       48852     20.54%    100.00%
system.ruby.L1Cache_Controller.IS.Data_all_Acks::total       237874                      
system.ruby.L1Cache_Controller.IM.Data   |          31      3.03%      3.03% |         558     54.60%     57.63% |         312     30.53%     88.16% |         121     11.84%    100.00%
system.ruby.L1Cache_Controller.IM.Data::total         1022                      
system.ruby.L1Cache_Controller.IM.Data_all_Acks |        8920      0.10%      0.10% |     9205693     99.28%     99.38% |       11383      0.12%     99.50% |       46291      0.50%    100.00%
system.ruby.L1Cache_Controller.IM.Data_all_Acks::total      9272287                      
system.ruby.L1Cache_Controller.IM.Ack    |           1     11.11%     11.11% |           0      0.00%     11.11% |           7     77.78%     88.89% |           1     11.11%    100.00%
system.ruby.L1Cache_Controller.IM.Ack::total            9                      
system.ruby.L1Cache_Controller.SM.Inv    |           0      0.00%      0.00% |           0      0.00%      0.00% |           1     33.33%     33.33% |           2     66.67%    100.00%
system.ruby.L1Cache_Controller.SM.Inv::total            3                      
system.ruby.L1Cache_Controller.SM.Ack    |        6427     46.76%     46.76% |        2842     20.68%     67.43% |        1650     12.00%     79.43% |        2827     20.57%    100.00%
system.ruby.L1Cache_Controller.SM.Ack::total        13746                      
system.ruby.L1Cache_Controller.SM.Ack_all |        2799     33.58%     33.58% |        1991     23.88%     57.46% |        1411     16.93%     74.39% |        2135     25.61%    100.00%
system.ruby.L1Cache_Controller.SM.Ack_all::total         8336                      
system.ruby.L1Cache_Controller.M_I.Ifetch |           0      0.00%      0.00% |           2     66.67%     66.67% |           0      0.00%     66.67% |           1     33.33%    100.00%
system.ruby.L1Cache_Controller.M_I.Ifetch::total            3                      
system.ruby.L1Cache_Controller.M_I.WB_Ack |        9261      0.04%      0.04% |    21023957     99.32%     99.36% |       14773      0.07%     99.43% |      120823      0.57%    100.00%
system.ruby.L1Cache_Controller.M_I.WB_Ack::total     21168814                      
system.ruby.L2Cache_Controller.L1_GET_INSTR       209577      0.00%      0.00%
system.ruby.L2Cache_Controller.L1_GETS       11979005      0.00%      0.00%
system.ruby.L2Cache_Controller.L1_GETX        9273311      0.00%      0.00%
system.ruby.L2Cache_Controller.L1_UPGRADE         7318      0.00%      0.00%
system.ruby.L2Cache_Controller.L1_PUTX       21168814      0.00%      0.00%
system.ruby.L2Cache_Controller.L2_Replacement      1455765      0.00%      0.00%
system.ruby.L2Cache_Controller.L2_Replacement_clean      1654409      0.00%      0.00%
system.ruby.L2Cache_Controller.Mem_Data       3118025      0.00%      0.00%
system.ruby.L2Cache_Controller.Mem_Ack        3110176      0.00%      0.00%
system.ruby.L2Cache_Controller.WB_Data          30070      0.00%      0.00%
system.ruby.L2Cache_Controller.WB_Data_clean         5428      0.00%      0.00%
system.ruby.L2Cache_Controller.Ack              50766      0.00%      0.00%
system.ruby.L2Cache_Controller.Ack_all          46669      0.00%      0.00%
system.ruby.L2Cache_Controller.Unblock          12719      0.00%      0.00%
system.ruby.L2Cache_Controller.Exclusive_Unblock     21218548      0.00%      0.00%
system.ruby.L2Cache_Controller.MEM_Inv              4      0.00%      0.00%
system.ruby.L2Cache_Controller.NP.L1_GET_INSTR        32986      0.00%      0.00%
system.ruby.L2Cache_Controller.NP.L1_GETS      1631383      0.00%      0.00%
system.ruby.L2Cache_Controller.NP.L1_GETX      1453656      0.00%      0.00%
system.ruby.L2Cache_Controller.SS.L1_GET_INSTR       176574      0.00%      0.00%
system.ruby.L2Cache_Controller.SS.L1_GETS        28298      0.00%      0.00%
system.ruby.L2Cache_Controller.SS.L1_GETX         1027      0.00%      0.00%
system.ruby.L2Cache_Controller.SS.L1_UPGRADE         7314      0.00%      0.00%
system.ruby.L2Cache_Controller.SS.L2_Replacement          948      0.00%      0.00%
system.ruby.L2Cache_Controller.SS.L2_Replacement_clean        35126      0.00%      0.00%
system.ruby.L2Cache_Controller.M.L1_GET_INSTR           16      0.00%      0.00%
system.ruby.L2Cache_Controller.M.L1_GETS     10306542      0.00%      0.00%
system.ruby.L2Cache_Controller.M.L1_GETX      7815060      0.00%      0.00%
system.ruby.L2Cache_Controller.M.L2_Replacement      1452019      0.00%      0.00%
system.ruby.L2Cache_Controller.M.L2_Replacement_clean      1588709      0.00%      0.00%
system.ruby.L2Cache_Controller.MT.L1_GETS        12719      0.00%      0.00%
system.ruby.L2Cache_Controller.MT.L1_GETX         3566      0.00%      0.00%
system.ruby.L2Cache_Controller.MT.L1_PUTX     21168814      0.00%      0.00%
system.ruby.L2Cache_Controller.MT.L2_Replacement         2798      0.00%      0.00%
system.ruby.L2Cache_Controller.MT.L2_Replacement_clean        30574      0.00%      0.00%
system.ruby.L2Cache_Controller.MT.MEM_Inv            2      0.00%      0.00%
system.ruby.L2Cache_Controller.M_I.L1_GET_INSTR            1      0.00%      0.00%
system.ruby.L2Cache_Controller.M_I.Mem_Ack      3110176      0.00%      0.00%
system.ruby.L2Cache_Controller.MT_I.WB_Data         2600      0.00%      0.00%
system.ruby.L2Cache_Controller.MT_I.Ack_all          200      0.00%      0.00%
system.ruby.L2Cache_Controller.MT_I.MEM_Inv            2      0.00%      0.00%
system.ruby.L2Cache_Controller.MCT_I.WB_Data        20179      0.00%      0.00%
system.ruby.L2Cache_Controller.MCT_I.Ack_all        10395      0.00%      0.00%
system.ruby.L2Cache_Controller.I_I.Ack          49518      0.00%      0.00%
system.ruby.L2Cache_Controller.I_I.Ack_all        35126      0.00%      0.00%
system.ruby.L2Cache_Controller.S_I.Ack           1248      0.00%      0.00%
system.ruby.L2Cache_Controller.S_I.Ack_all          948      0.00%      0.00%
system.ruby.L2Cache_Controller.ISS.Mem_Data      1631383      0.00%      0.00%
system.ruby.L2Cache_Controller.IS.Mem_Data        32986      0.00%      0.00%
system.ruby.L2Cache_Controller.IM.Mem_Data      1453656      0.00%      0.00%
system.ruby.L2Cache_Controller.SS_MB.L1_GETS           57      0.00%      0.00%
system.ruby.L2Cache_Controller.SS_MB.L1_GETX            1      0.00%      0.00%
system.ruby.L2Cache_Controller.SS_MB.L1_UPGRADE            3      0.00%      0.00%
system.ruby.L2Cache_Controller.SS_MB.Exclusive_Unblock         8341      0.00%      0.00%
system.ruby.L2Cache_Controller.MT_MB.L1_GETS            5      0.00%      0.00%
system.ruby.L2Cache_Controller.MT_MB.Exclusive_Unblock     21210207      0.00%      0.00%
system.ruby.L2Cache_Controller.MT_IIB.L1_GETS            1      0.00%      0.00%
system.ruby.L2Cache_Controller.MT_IIB.L1_GETX            1      0.00%      0.00%
system.ruby.L2Cache_Controller.MT_IIB.Unblock        12719      0.00%      0.00%
system.ruby.L2Cache_Controller.MT_IB.L1_UPGRADE            1      0.00%      0.00%
system.ruby.L2Cache_Controller.MT_IB.WB_Data         7291      0.00%      0.00%
system.ruby.L2Cache_Controller.MT_IB.WB_Data_clean         5428      0.00%      0.00%

---------- End Simulation Statistics   ----------
