
---------- Begin Simulation Statistics ----------
sim_seconds                                  0.791923                       # Number of seconds simulated
sim_ticks                                791922610000                       # Number of ticks simulated
final_tick                               54304663770001                       # Number of ticks from beginning of simulation (restored from checkpoints and never reset)
sim_freq                                 1000000000000                       # Frequency of simulated ticks
host_inst_rate                                  99687                       # Simulator instruction rate (inst/s)
host_op_rate                                   165091                       # Simulator op (including micro ops) rate (op/s)
host_tick_rate                              282112181                       # Simulator tick rate (ticks/s)
host_mem_usage                                2191008                       # Number of bytes of host memory used
host_seconds                                  2807.12                       # Real time elapsed on the host
sim_insts                                   279834702                       # Number of instructions simulated
sim_ops                                     463429862                       # Number of ops (including micro ops) simulated
system.voltage_domain.voltage                       1                       # Voltage in Volts
system.clk_domain.clock                          1000                       # Clock period in ticks
system.mem_ctrls0.bytes_read::ruby.dir_cntrl0     60283136                       # Number of bytes read from this memory
system.mem_ctrls0.bytes_read::total          60283136                       # Number of bytes read from this memory
system.mem_ctrls0.bytes_written::ruby.dir_cntrl0     31990720                       # Number of bytes written to this memory
system.mem_ctrls0.bytes_written::total       31990720                       # Number of bytes written to this memory
system.mem_ctrls0.num_reads::ruby.dir_cntrl0       941924                       # Number of read requests responded to by this memory
system.mem_ctrls0.num_reads::total             941924                       # Number of read requests responded to by this memory
system.mem_ctrls0.num_writes::ruby.dir_cntrl0       499855                       # Number of write requests responded to by this memory
system.mem_ctrls0.num_writes::total            499855                       # Number of write requests responded to by this memory
system.mem_ctrls0.bw_read::ruby.dir_cntrl0     76122509                       # Total read bandwidth from this memory (bytes/s)
system.mem_ctrls0.bw_read::total             76122509                       # Total read bandwidth from this memory (bytes/s)
system.mem_ctrls0.bw_write::ruby.dir_cntrl0     40396271                       # Write bandwidth from this memory (bytes/s)
system.mem_ctrls0.bw_write::total            40396271                       # Write bandwidth from this memory (bytes/s)
system.mem_ctrls0.bw_total::ruby.dir_cntrl0    116518780                       # Total bandwidth to/from this memory (bytes/s)
system.mem_ctrls0.bw_total::total           116518780                       # Total bandwidth to/from this memory (bytes/s)
system.mem_ctrls0.readReqs                     941924                       # Number of read requests accepted
system.mem_ctrls0.writeReqs                    499855                       # Number of write requests accepted
system.mem_ctrls0.readBursts                   941924                       # Number of DRAM read bursts, including those serviced by the write queue
system.mem_ctrls0.writeBursts                  499855                       # Number of DRAM write bursts, including those merged in the write queue
system.mem_ctrls0.bytesReadDRAM              60245632                       # Total number of bytes read from DRAM
system.mem_ctrls0.bytesReadWrQ                  37504                       # Total number of bytes read from write queue
system.mem_ctrls0.bytesWritten               31990912                       # Total number of bytes written to DRAM
system.mem_ctrls0.bytesReadSys               60283136                       # Total read bytes from the system interface side
system.mem_ctrls0.bytesWrittenSys            31990720                       # Total written bytes from the system interface side
system.mem_ctrls0.servicedByWrQ                   586                       # Number of DRAM read bursts serviced by the write queue
system.mem_ctrls0.mergedWrBursts                    0                       # Number of DRAM write bursts merged with an existing one
system.mem_ctrls0.neitherReadNorWriteReqs            0                       # Number of requests that are neither read nor write
system.mem_ctrls0.perBankRdBursts::0            59597                       # Per bank write bursts
system.mem_ctrls0.perBankRdBursts::1            59976                       # Per bank write bursts
system.mem_ctrls0.perBankRdBursts::2            59578                       # Per bank write bursts
system.mem_ctrls0.perBankRdBursts::3            60182                       # Per bank write bursts
system.mem_ctrls0.perBankRdBursts::4            63807                       # Per bank write bursts
system.mem_ctrls0.perBankRdBursts::5            59118                       # Per bank write bursts
system.mem_ctrls0.perBankRdBursts::6            57447                       # Per bank write bursts
system.mem_ctrls0.perBankRdBursts::7            55096                       # Per bank write bursts
system.mem_ctrls0.perBankRdBursts::8            55488                       # Per bank write bursts
system.mem_ctrls0.perBankRdBursts::9            56320                       # Per bank write bursts
system.mem_ctrls0.perBankRdBursts::10           56108                       # Per bank write bursts
system.mem_ctrls0.perBankRdBursts::11           55366                       # Per bank write bursts
system.mem_ctrls0.perBankRdBursts::12           61580                       # Per bank write bursts
system.mem_ctrls0.perBankRdBursts::13           61420                       # Per bank write bursts
system.mem_ctrls0.perBankRdBursts::14           59523                       # Per bank write bursts
system.mem_ctrls0.perBankRdBursts::15           60732                       # Per bank write bursts
system.mem_ctrls0.perBankWrBursts::0            30605                       # Per bank write bursts
system.mem_ctrls0.perBankWrBursts::1            30948                       # Per bank write bursts
system.mem_ctrls0.perBankWrBursts::2            29959                       # Per bank write bursts
system.mem_ctrls0.perBankWrBursts::3            30073                       # Per bank write bursts
system.mem_ctrls0.perBankWrBursts::4            33522                       # Per bank write bursts
system.mem_ctrls0.perBankWrBursts::5            32663                       # Per bank write bursts
system.mem_ctrls0.perBankWrBursts::6            32744                       # Per bank write bursts
system.mem_ctrls0.perBankWrBursts::7            31518                       # Per bank write bursts
system.mem_ctrls0.perBankWrBursts::8            30847                       # Per bank write bursts
system.mem_ctrls0.perBankWrBursts::9            31213                       # Per bank write bursts
system.mem_ctrls0.perBankWrBursts::10           30791                       # Per bank write bursts
system.mem_ctrls0.perBankWrBursts::11           31001                       # Per bank write bursts
system.mem_ctrls0.perBankWrBursts::12           31541                       # Per bank write bursts
system.mem_ctrls0.perBankWrBursts::13           31064                       # Per bank write bursts
system.mem_ctrls0.perBankWrBursts::14           30832                       # Per bank write bursts
system.mem_ctrls0.perBankWrBursts::15           30537                       # Per bank write bursts
system.mem_ctrls0.numRdRetry                        0                       # Number of times read queue was full causing retry
system.mem_ctrls0.numWrRetry                        0                       # Number of times write queue was full causing retry
system.mem_ctrls0.totGap                 791923336500                       # Total gap between requests
system.mem_ctrls0.readPktSize::0                    0                       # Read request sizes (log2)
system.mem_ctrls0.readPktSize::1                    0                       # Read request sizes (log2)
system.mem_ctrls0.readPktSize::2                    0                       # Read request sizes (log2)
system.mem_ctrls0.readPktSize::3                    0                       # Read request sizes (log2)
system.mem_ctrls0.readPktSize::4                    0                       # Read request sizes (log2)
system.mem_ctrls0.readPktSize::5                    0                       # Read request sizes (log2)
system.mem_ctrls0.readPktSize::6               941924                       # Read request sizes (log2)
system.mem_ctrls0.writePktSize::0                   0                       # Write request sizes (log2)
system.mem_ctrls0.writePktSize::1                   0                       # Write request sizes (log2)
system.mem_ctrls0.writePktSize::2                   0                       # Write request sizes (log2)
system.mem_ctrls0.writePktSize::3                   0                       # Write request sizes (log2)
system.mem_ctrls0.writePktSize::4                   0                       # Write request sizes (log2)
system.mem_ctrls0.writePktSize::5                   0                       # Write request sizes (log2)
system.mem_ctrls0.writePktSize::6              499855                       # Write request sizes (log2)
system.mem_ctrls0.rdQLenPdf::0                 940038                       # What read queue length does an incoming req see
system.mem_ctrls0.rdQLenPdf::1                   1297                       # What read queue length does an incoming req see
system.mem_ctrls0.rdQLenPdf::2                      3                       # What read queue length does an incoming req see
system.mem_ctrls0.rdQLenPdf::3                      0                       # What read queue length does an incoming req see
system.mem_ctrls0.rdQLenPdf::4                      0                       # What read queue length does an incoming req see
system.mem_ctrls0.rdQLenPdf::5                      0                       # What read queue length does an incoming req see
system.mem_ctrls0.rdQLenPdf::6                      0                       # What read queue length does an incoming req see
system.mem_ctrls0.rdQLenPdf::7                      0                       # What read queue length does an incoming req see
system.mem_ctrls0.rdQLenPdf::8                      0                       # What read queue length does an incoming req see
system.mem_ctrls0.rdQLenPdf::9                      0                       # What read queue length does an incoming req see
system.mem_ctrls0.rdQLenPdf::10                     0                       # What read queue length does an incoming req see
system.mem_ctrls0.rdQLenPdf::11                     0                       # What read queue length does an incoming req see
system.mem_ctrls0.rdQLenPdf::12                     0                       # What read queue length does an incoming req see
system.mem_ctrls0.rdQLenPdf::13                     0                       # What read queue length does an incoming req see
system.mem_ctrls0.rdQLenPdf::14                     0                       # What read queue length does an incoming req see
system.mem_ctrls0.rdQLenPdf::15                     0                       # What read queue length does an incoming req see
system.mem_ctrls0.rdQLenPdf::16                     0                       # What read queue length does an incoming req see
system.mem_ctrls0.rdQLenPdf::17                     0                       # What read queue length does an incoming req see
system.mem_ctrls0.rdQLenPdf::18                     0                       # What read queue length does an incoming req see
system.mem_ctrls0.rdQLenPdf::19                     0                       # What read queue length does an incoming req see
system.mem_ctrls0.rdQLenPdf::20                     0                       # What read queue length does an incoming req see
system.mem_ctrls0.rdQLenPdf::21                     0                       # What read queue length does an incoming req see
system.mem_ctrls0.rdQLenPdf::22                     0                       # What read queue length does an incoming req see
system.mem_ctrls0.rdQLenPdf::23                     0                       # What read queue length does an incoming req see
system.mem_ctrls0.rdQLenPdf::24                     0                       # What read queue length does an incoming req see
system.mem_ctrls0.rdQLenPdf::25                     0                       # What read queue length does an incoming req see
system.mem_ctrls0.rdQLenPdf::26                     0                       # What read queue length does an incoming req see
system.mem_ctrls0.rdQLenPdf::27                     0                       # What read queue length does an incoming req see
system.mem_ctrls0.rdQLenPdf::28                     0                       # What read queue length does an incoming req see
system.mem_ctrls0.rdQLenPdf::29                     0                       # What read queue length does an incoming req see
system.mem_ctrls0.rdQLenPdf::30                     0                       # What read queue length does an incoming req see
system.mem_ctrls0.rdQLenPdf::31                     0                       # What read queue length does an incoming req see
system.mem_ctrls0.wrQLenPdf::0                      0                       # What write queue length does an incoming req see
system.mem_ctrls0.wrQLenPdf::1                      0                       # What write queue length does an incoming req see
system.mem_ctrls0.wrQLenPdf::2                      0                       # What write queue length does an incoming req see
system.mem_ctrls0.wrQLenPdf::3                      0                       # What write queue length does an incoming req see
system.mem_ctrls0.wrQLenPdf::4                      0                       # What write queue length does an incoming req see
system.mem_ctrls0.wrQLenPdf::5                      0                       # What write queue length does an incoming req see
system.mem_ctrls0.wrQLenPdf::6                      0                       # What write queue length does an incoming req see
system.mem_ctrls0.wrQLenPdf::7                      0                       # What write queue length does an incoming req see
system.mem_ctrls0.wrQLenPdf::8                      0                       # What write queue length does an incoming req see
system.mem_ctrls0.wrQLenPdf::9                      0                       # What write queue length does an incoming req see
system.mem_ctrls0.wrQLenPdf::10                     0                       # What write queue length does an incoming req see
system.mem_ctrls0.wrQLenPdf::11                     0                       # What write queue length does an incoming req see
system.mem_ctrls0.wrQLenPdf::12                     0                       # What write queue length does an incoming req see
system.mem_ctrls0.wrQLenPdf::13                     0                       # What write queue length does an incoming req see
system.mem_ctrls0.wrQLenPdf::14                     0                       # What write queue length does an incoming req see
system.mem_ctrls0.wrQLenPdf::15                 25228                       # What write queue length does an incoming req see
system.mem_ctrls0.wrQLenPdf::16                 25722                       # What write queue length does an incoming req see
system.mem_ctrls0.wrQLenPdf::17                 27822                       # What write queue length does an incoming req see
system.mem_ctrls0.wrQLenPdf::18                 28160                       # What write queue length does an incoming req see
system.mem_ctrls0.wrQLenPdf::19                 28113                       # What write queue length does an incoming req see
system.mem_ctrls0.wrQLenPdf::20                 28045                       # What write queue length does an incoming req see
system.mem_ctrls0.wrQLenPdf::21                 28026                       # What write queue length does an incoming req see
system.mem_ctrls0.wrQLenPdf::22                 28027                       # What write queue length does an incoming req see
system.mem_ctrls0.wrQLenPdf::23                 28029                       # What write queue length does an incoming req see
system.mem_ctrls0.wrQLenPdf::24                 28041                       # What write queue length does an incoming req see
system.mem_ctrls0.wrQLenPdf::25                 28057                       # What write queue length does an incoming req see
system.mem_ctrls0.wrQLenPdf::26                 28076                       # What write queue length does an incoming req see
system.mem_ctrls0.wrQLenPdf::27                 28047                       # What write queue length does an incoming req see
system.mem_ctrls0.wrQLenPdf::28                 28143                       # What write queue length does an incoming req see
system.mem_ctrls0.wrQLenPdf::29                 28181                       # What write queue length does an incoming req see
system.mem_ctrls0.wrQLenPdf::30                 28084                       # What write queue length does an incoming req see
system.mem_ctrls0.wrQLenPdf::31                 28014                       # What write queue length does an incoming req see
system.mem_ctrls0.wrQLenPdf::32                 28014                       # What write queue length does an incoming req see
system.mem_ctrls0.wrQLenPdf::33                    24                       # What write queue length does an incoming req see
system.mem_ctrls0.wrQLenPdf::34                     2                       # What write queue length does an incoming req see
system.mem_ctrls0.wrQLenPdf::35                     0                       # What write queue length does an incoming req see
system.mem_ctrls0.wrQLenPdf::36                     0                       # What write queue length does an incoming req see
system.mem_ctrls0.wrQLenPdf::37                     0                       # What write queue length does an incoming req see
system.mem_ctrls0.wrQLenPdf::38                     0                       # What write queue length does an incoming req see
system.mem_ctrls0.wrQLenPdf::39                     0                       # What write queue length does an incoming req see
system.mem_ctrls0.wrQLenPdf::40                     0                       # What write queue length does an incoming req see
system.mem_ctrls0.wrQLenPdf::41                     0                       # What write queue length does an incoming req see
system.mem_ctrls0.wrQLenPdf::42                     0                       # What write queue length does an incoming req see
system.mem_ctrls0.wrQLenPdf::43                     0                       # What write queue length does an incoming req see
system.mem_ctrls0.wrQLenPdf::44                     0                       # What write queue length does an incoming req see
system.mem_ctrls0.wrQLenPdf::45                     0                       # What write queue length does an incoming req see
system.mem_ctrls0.wrQLenPdf::46                     0                       # What write queue length does an incoming req see
system.mem_ctrls0.wrQLenPdf::47                     0                       # What write queue length does an incoming req see
system.mem_ctrls0.wrQLenPdf::48                     0                       # What write queue length does an incoming req see
system.mem_ctrls0.wrQLenPdf::49                     0                       # What write queue length does an incoming req see
system.mem_ctrls0.wrQLenPdf::50                     0                       # What write queue length does an incoming req see
system.mem_ctrls0.wrQLenPdf::51                     0                       # What write queue length does an incoming req see
system.mem_ctrls0.wrQLenPdf::52                     0                       # What write queue length does an incoming req see
system.mem_ctrls0.wrQLenPdf::53                     0                       # What write queue length does an incoming req see
system.mem_ctrls0.wrQLenPdf::54                     0                       # What write queue length does an incoming req see
system.mem_ctrls0.wrQLenPdf::55                     0                       # What write queue length does an incoming req see
system.mem_ctrls0.wrQLenPdf::56                     0                       # What write queue length does an incoming req see
system.mem_ctrls0.wrQLenPdf::57                     0                       # What write queue length does an incoming req see
system.mem_ctrls0.wrQLenPdf::58                     0                       # What write queue length does an incoming req see
system.mem_ctrls0.wrQLenPdf::59                     0                       # What write queue length does an incoming req see
system.mem_ctrls0.wrQLenPdf::60                     0                       # What write queue length does an incoming req see
system.mem_ctrls0.wrQLenPdf::61                     0                       # What write queue length does an incoming req see
system.mem_ctrls0.wrQLenPdf::62                     0                       # What write queue length does an incoming req see
system.mem_ctrls0.wrQLenPdf::63                     0                       # What write queue length does an incoming req see
system.mem_ctrls0.bytesPerActivate::samples      1338960                       # Bytes accessed per row activation
system.mem_ctrls0.bytesPerActivate::mean    68.886706                       # Bytes accessed per row activation
system.mem_ctrls0.bytesPerActivate::gmean    66.930570                       # Bytes accessed per row activation
system.mem_ctrls0.bytesPerActivate::stdev    31.764156                       # Bytes accessed per row activation
system.mem_ctrls0.bytesPerActivate::0-127      1260187     94.12%     94.12% # Bytes accessed per row activation
system.mem_ctrls0.bytesPerActivate::128-255        76485      5.71%     99.83% # Bytes accessed per row activation
system.mem_ctrls0.bytesPerActivate::256-383          690      0.05%     99.88% # Bytes accessed per row activation
system.mem_ctrls0.bytesPerActivate::384-511          208      0.02%     99.90% # Bytes accessed per row activation
system.mem_ctrls0.bytesPerActivate::512-639          206      0.02%     99.91% # Bytes accessed per row activation
system.mem_ctrls0.bytesPerActivate::640-767          158      0.01%     99.92% # Bytes accessed per row activation
system.mem_ctrls0.bytesPerActivate::768-895          156      0.01%     99.94% # Bytes accessed per row activation
system.mem_ctrls0.bytesPerActivate::896-1023          198      0.01%     99.95% # Bytes accessed per row activation
system.mem_ctrls0.bytesPerActivate::1024-1151          672      0.05%    100.00% # Bytes accessed per row activation
system.mem_ctrls0.bytesPerActivate::total      1338960                       # Bytes accessed per row activation
system.mem_ctrls0.rdPerTurnAround::samples        28014                       # Reads before turning the bus around for writes
system.mem_ctrls0.rdPerTurnAround::mean     33.604483                       # Reads before turning the bus around for writes
system.mem_ctrls0.rdPerTurnAround::stdev    11.315702                       # Reads before turning the bus around for writes
system.mem_ctrls0.rdPerTurnAround::0-15           248      0.89%      0.89% # Reads before turning the bus around for writes
system.mem_ctrls0.rdPerTurnAround::16-31        12129     43.30%     44.18% # Reads before turning the bus around for writes
system.mem_ctrls0.rdPerTurnAround::32-47        14198     50.68%     94.86% # Reads before turning the bus around for writes
system.mem_ctrls0.rdPerTurnAround::48-63         1224      4.37%     99.23% # Reads before turning the bus around for writes
system.mem_ctrls0.rdPerTurnAround::64-79           66      0.24%     99.47% # Reads before turning the bus around for writes
system.mem_ctrls0.rdPerTurnAround::80-95           25      0.09%     99.56% # Reads before turning the bus around for writes
system.mem_ctrls0.rdPerTurnAround::96-111           26      0.09%     99.65% # Reads before turning the bus around for writes
system.mem_ctrls0.rdPerTurnAround::112-127           21      0.07%     99.73% # Reads before turning the bus around for writes
system.mem_ctrls0.rdPerTurnAround::128-143           19      0.07%     99.79% # Reads before turning the bus around for writes
system.mem_ctrls0.rdPerTurnAround::144-159           21      0.07%     99.87% # Reads before turning the bus around for writes
system.mem_ctrls0.rdPerTurnAround::160-175           16      0.06%     99.93% # Reads before turning the bus around for writes
system.mem_ctrls0.rdPerTurnAround::176-191           12      0.04%     99.97% # Reads before turning the bus around for writes
system.mem_ctrls0.rdPerTurnAround::192-207            5      0.02%     99.99% # Reads before turning the bus around for writes
system.mem_ctrls0.rdPerTurnAround::208-223            2      0.01%     99.99% # Reads before turning the bus around for writes
system.mem_ctrls0.rdPerTurnAround::224-239            1      0.00%    100.00% # Reads before turning the bus around for writes
system.mem_ctrls0.rdPerTurnAround::288-303            1      0.00%    100.00% # Reads before turning the bus around for writes
system.mem_ctrls0.rdPerTurnAround::total        28014                       # Reads before turning the bus around for writes
system.mem_ctrls0.wrPerTurnAround::samples        28014                       # Writes before turning the bus around for reads
system.mem_ctrls0.wrPerTurnAround::mean     17.843150                       # Writes before turning the bus around for reads
system.mem_ctrls0.wrPerTurnAround::gmean    17.832497                       # Writes before turning the bus around for reads
system.mem_ctrls0.wrPerTurnAround::stdev     0.600123                       # Writes before turning the bus around for reads
system.mem_ctrls0.wrPerTurnAround::16            2393      8.54%      8.54% # Writes before turning the bus around for reads
system.mem_ctrls0.wrPerTurnAround::17             383      1.37%      9.91% # Writes before turning the bus around for reads
system.mem_ctrls0.wrPerTurnAround::18           24485     87.40%     97.31% # Writes before turning the bus around for reads
system.mem_ctrls0.wrPerTurnAround::19             733      2.62%     99.93% # Writes before turning the bus around for reads
system.mem_ctrls0.wrPerTurnAround::20              18      0.06%     99.99% # Writes before turning the bus around for reads
system.mem_ctrls0.wrPerTurnAround::21               2      0.01%    100.00% # Writes before turning the bus around for reads
system.mem_ctrls0.wrPerTurnAround::total        28014                       # Writes before turning the bus around for reads
system.mem_ctrls0.totQLat                 18888656747                       # Total ticks spent queuing
system.mem_ctrls0.totMemAccLat            36538744247                       # Total ticks spent from burst creation until serviced by the DRAM
system.mem_ctrls0.totBusLat                4706690000                       # Total ticks spent in databus transfers
system.mem_ctrls0.avgQLat                    20065.75                       # Average queueing delay per DRAM burst
system.mem_ctrls0.avgBusLat                   5000.00                       # Average bus latency per DRAM burst
system.mem_ctrls0.avgMemAccLat               38815.75                       # Average memory access latency per DRAM burst
system.mem_ctrls0.avgRdBW                       76.08                       # Average DRAM read bandwidth in MiByte/s
system.mem_ctrls0.avgWrBW                       40.40                       # Average achieved write bandwidth in MiByte/s
system.mem_ctrls0.avgRdBWSys                    76.12                       # Average system read bandwidth in MiByte/s
system.mem_ctrls0.avgWrBWSys                    40.40                       # Average system write bandwidth in MiByte/s
system.mem_ctrls0.peakBW                     12800.00                       # Theoretical peak bandwidth in MiByte/s
system.mem_ctrls0.busUtil                        0.91                       # Data bus utilization in percentage
system.mem_ctrls0.busUtilRead                    0.59                       # Data bus utilization in percentage for reads
system.mem_ctrls0.busUtilWrite                   0.32                       # Data bus utilization in percentage for writes
system.mem_ctrls0.avgRdQLen                      1.00                       # Average read queue length when enqueuing
system.mem_ctrls0.avgWrQLen                     24.59                       # Average write queue length when enqueuing
system.mem_ctrls0.readRowHits                   44581                       # Number of row buffer hits during reads
system.mem_ctrls0.writeRowHits                  57655                       # Number of row buffer hits during writes
system.mem_ctrls0.readRowHitRate                 4.74                       # Row buffer hit rate for reads
system.mem_ctrls0.writeRowHitRate               11.53                       # Row buffer hit rate for writes
system.mem_ctrls0.avgGap                    549268.19                       # Average gap between requests
system.mem_ctrls0.pageHitRate                    7.09                       # Row buffer hit rate, read and write combined
system.mem_ctrls0_0.actEnergy              5115285000                       # Energy for activate commands per rank (pJ)
system.mem_ctrls0_0.preEnergy              2791078125                       # Energy for precharge commands per rank (pJ)
system.mem_ctrls0_0.readEnergy             3739655400                       # Energy for read commands per rank (pJ)
system.mem_ctrls0_0.writeEnergy            1633620960                       # Energy for write commands per rank (pJ)
system.mem_ctrls0_0.refreshEnergy         52264711200                       # Energy for refresh commands per rank (pJ)
system.mem_ctrls0_0.actBackEnergy        434948442795                       # Energy for active background per rank (pJ)
system.mem_ctrls0_0.preBackEnergy         98582173500                       # Energy for precharge background per rank (pJ)
system.mem_ctrls0_0.totalEnergy          599074966980                       # Total energy per rank (pJ)
system.mem_ctrls0_0.averagePower           748.662945                       # Core power per rank (mW)
system.mem_ctrls0_0.memoryStateTime::IDLE 156586105751                       # Time in different power states
system.mem_ctrls0_0.memoryStateTime::REF  26444080000                       # Time in different power states
system.mem_ctrls0_0.memoryStateTime::PRE_PDN            0                       # Time in different power states
system.mem_ctrls0_0.memoryStateTime::ACT 608893715499                       # Time in different power states
system.mem_ctrls0_0.memoryStateTime::ACT_PDN            0                       # Time in different power states
system.mem_ctrls0_1.actEnergy              5027309280                       # Energy for activate commands per rank (pJ)
system.mem_ctrls0_1.preEnergy              2743075500                       # Energy for precharge commands per rank (pJ)
system.mem_ctrls0_1.readEnergy             3680336400                       # Energy for read commands per rank (pJ)
system.mem_ctrls0_1.writeEnergy            1606392000                       # Energy for write commands per rank (pJ)
system.mem_ctrls0_1.refreshEnergy         52264711200                       # Energy for refresh commands per rank (pJ)
system.mem_ctrls0_1.actBackEnergy        434489129100                       # Energy for active background per rank (pJ)
system.mem_ctrls0_1.preBackEnergy         98985088500                       # Energy for precharge background per rank (pJ)
system.mem_ctrls0_1.totalEnergy          598796041980                       # Total energy per rank (pJ)
system.mem_ctrls0_1.averagePower           748.314360                       # Core power per rank (mW)
system.mem_ctrls0_1.memoryStateTime::IDLE 158120059250                       # Time in different power states
system.mem_ctrls0_1.memoryStateTime::REF  26444080000                       # Time in different power states
system.mem_ctrls0_1.memoryStateTime::PRE_PDN            0                       # Time in different power states
system.mem_ctrls0_1.memoryStateTime::ACT 607359775750                       # Time in different power states
system.mem_ctrls0_1.memoryStateTime::ACT_PDN            0                       # Time in different power states
system.mem_ctrls1.bytes_read::ruby.dir_cntrl1     60235712                       # Number of bytes read from this memory
system.mem_ctrls1.bytes_read::total          60235712                       # Number of bytes read from this memory
system.mem_ctrls1.bytes_written::ruby.dir_cntrl1     32086592                       # Number of bytes written to this memory
system.mem_ctrls1.bytes_written::total       32086592                       # Number of bytes written to this memory
system.mem_ctrls1.num_reads::ruby.dir_cntrl1       941183                       # Number of read requests responded to by this memory
system.mem_ctrls1.num_reads::total             941183                       # Number of read requests responded to by this memory
system.mem_ctrls1.num_writes::ruby.dir_cntrl1       501353                       # Number of write requests responded to by this memory
system.mem_ctrls1.num_writes::total            501353                       # Number of write requests responded to by this memory
system.mem_ctrls1.bw_read::ruby.dir_cntrl1     76062624                       # Total read bandwidth from this memory (bytes/s)
system.mem_ctrls1.bw_read::total             76062624                       # Total read bandwidth from this memory (bytes/s)
system.mem_ctrls1.bw_write::ruby.dir_cntrl1     40517333                       # Write bandwidth from this memory (bytes/s)
system.mem_ctrls1.bw_write::total            40517333                       # Write bandwidth from this memory (bytes/s)
system.mem_ctrls1.bw_total::ruby.dir_cntrl1    116579957                       # Total bandwidth to/from this memory (bytes/s)
system.mem_ctrls1.bw_total::total           116579957                       # Total bandwidth to/from this memory (bytes/s)
system.mem_ctrls1.readReqs                     941183                       # Number of read requests accepted
system.mem_ctrls1.writeReqs                    501353                       # Number of write requests accepted
system.mem_ctrls1.readBursts                   941183                       # Number of DRAM read bursts, including those serviced by the write queue
system.mem_ctrls1.writeBursts                  501353                       # Number of DRAM write bursts, including those merged in the write queue
system.mem_ctrls1.bytesReadDRAM              60197632                       # Total number of bytes read from DRAM
system.mem_ctrls1.bytesReadWrQ                  38080                       # Total number of bytes read from write queue
system.mem_ctrls1.bytesWritten               32086528                       # Total number of bytes written to DRAM
system.mem_ctrls1.bytesReadSys               60235712                       # Total read bytes from the system interface side
system.mem_ctrls1.bytesWrittenSys            32086592                       # Total written bytes from the system interface side
system.mem_ctrls1.servicedByWrQ                   595                       # Number of DRAM read bursts serviced by the write queue
system.mem_ctrls1.mergedWrBursts                    0                       # Number of DRAM write bursts merged with an existing one
system.mem_ctrls1.neitherReadNorWriteReqs            0                       # Number of requests that are neither read nor write
system.mem_ctrls1.perBankRdBursts::0            59462                       # Per bank write bursts
system.mem_ctrls1.perBankRdBursts::1            60079                       # Per bank write bursts
system.mem_ctrls1.perBankRdBursts::2            60020                       # Per bank write bursts
system.mem_ctrls1.perBankRdBursts::3            60098                       # Per bank write bursts
system.mem_ctrls1.perBankRdBursts::4            63895                       # Per bank write bursts
system.mem_ctrls1.perBankRdBursts::5            59007                       # Per bank write bursts
system.mem_ctrls1.perBankRdBursts::6            57100                       # Per bank write bursts
system.mem_ctrls1.perBankRdBursts::7            54543                       # Per bank write bursts
system.mem_ctrls1.perBankRdBursts::8            56389                       # Per bank write bursts
system.mem_ctrls1.perBankRdBursts::9            56988                       # Per bank write bursts
system.mem_ctrls1.perBankRdBursts::10           56187                       # Per bank write bursts
system.mem_ctrls1.perBankRdBursts::11           55192                       # Per bank write bursts
system.mem_ctrls1.perBankRdBursts::12           60841                       # Per bank write bursts
system.mem_ctrls1.perBankRdBursts::13           61018                       # Per bank write bursts
system.mem_ctrls1.perBankRdBursts::14           59482                       # Per bank write bursts
system.mem_ctrls1.perBankRdBursts::15           60287                       # Per bank write bursts
system.mem_ctrls1.perBankWrBursts::0            30518                       # Per bank write bursts
system.mem_ctrls1.perBankWrBursts::1            30942                       # Per bank write bursts
system.mem_ctrls1.perBankWrBursts::2            30526                       # Per bank write bursts
system.mem_ctrls1.perBankWrBursts::3            30275                       # Per bank write bursts
system.mem_ctrls1.perBankWrBursts::4            33599                       # Per bank write bursts
system.mem_ctrls1.perBankWrBursts::5            32737                       # Per bank write bursts
system.mem_ctrls1.perBankWrBursts::6            32645                       # Per bank write bursts
system.mem_ctrls1.perBankWrBursts::7            31325                       # Per bank write bursts
system.mem_ctrls1.perBankWrBursts::8            31572                       # Per bank write bursts
system.mem_ctrls1.perBankWrBursts::9            31616                       # Per bank write bursts
system.mem_ctrls1.perBankWrBursts::10           31058                       # Per bank write bursts
system.mem_ctrls1.perBankWrBursts::11           31116                       # Per bank write bursts
system.mem_ctrls1.perBankWrBursts::12           31352                       # Per bank write bursts
system.mem_ctrls1.perBankWrBursts::13           30790                       # Per bank write bursts
system.mem_ctrls1.perBankWrBursts::14           30753                       # Per bank write bursts
system.mem_ctrls1.perBankWrBursts::15           30528                       # Per bank write bursts
system.mem_ctrls1.numRdRetry                        0                       # Number of times read queue was full causing retry
system.mem_ctrls1.numWrRetry                        0                       # Number of times write queue was full causing retry
system.mem_ctrls1.totGap                 791922691500                       # Total gap between requests
system.mem_ctrls1.readPktSize::0                    0                       # Read request sizes (log2)
system.mem_ctrls1.readPktSize::1                    0                       # Read request sizes (log2)
system.mem_ctrls1.readPktSize::2                    0                       # Read request sizes (log2)
system.mem_ctrls1.readPktSize::3                    0                       # Read request sizes (log2)
system.mem_ctrls1.readPktSize::4                    0                       # Read request sizes (log2)
system.mem_ctrls1.readPktSize::5                    0                       # Read request sizes (log2)
system.mem_ctrls1.readPktSize::6               941183                       # Read request sizes (log2)
system.mem_ctrls1.writePktSize::0                   0                       # Write request sizes (log2)
system.mem_ctrls1.writePktSize::1                   0                       # Write request sizes (log2)
system.mem_ctrls1.writePktSize::2                   0                       # Write request sizes (log2)
system.mem_ctrls1.writePktSize::3                   0                       # Write request sizes (log2)
system.mem_ctrls1.writePktSize::4                   0                       # Write request sizes (log2)
system.mem_ctrls1.writePktSize::5                   0                       # Write request sizes (log2)
system.mem_ctrls1.writePktSize::6              501353                       # Write request sizes (log2)
system.mem_ctrls1.rdQLenPdf::0                 939243                       # What read queue length does an incoming req see
system.mem_ctrls1.rdQLenPdf::1                   1341                       # What read queue length does an incoming req see
system.mem_ctrls1.rdQLenPdf::2                      4                       # What read queue length does an incoming req see
system.mem_ctrls1.rdQLenPdf::3                      0                       # What read queue length does an incoming req see
system.mem_ctrls1.rdQLenPdf::4                      0                       # What read queue length does an incoming req see
system.mem_ctrls1.rdQLenPdf::5                      0                       # What read queue length does an incoming req see
system.mem_ctrls1.rdQLenPdf::6                      0                       # What read queue length does an incoming req see
system.mem_ctrls1.rdQLenPdf::7                      0                       # What read queue length does an incoming req see
system.mem_ctrls1.rdQLenPdf::8                      0                       # What read queue length does an incoming req see
system.mem_ctrls1.rdQLenPdf::9                      0                       # What read queue length does an incoming req see
system.mem_ctrls1.rdQLenPdf::10                     0                       # What read queue length does an incoming req see
system.mem_ctrls1.rdQLenPdf::11                     0                       # What read queue length does an incoming req see
system.mem_ctrls1.rdQLenPdf::12                     0                       # What read queue length does an incoming req see
system.mem_ctrls1.rdQLenPdf::13                     0                       # What read queue length does an incoming req see
system.mem_ctrls1.rdQLenPdf::14                     0                       # What read queue length does an incoming req see
system.mem_ctrls1.rdQLenPdf::15                     0                       # What read queue length does an incoming req see
system.mem_ctrls1.rdQLenPdf::16                     0                       # What read queue length does an incoming req see
system.mem_ctrls1.rdQLenPdf::17                     0                       # What read queue length does an incoming req see
system.mem_ctrls1.rdQLenPdf::18                     0                       # What read queue length does an incoming req see
system.mem_ctrls1.rdQLenPdf::19                     0                       # What read queue length does an incoming req see
system.mem_ctrls1.rdQLenPdf::20                     0                       # What read queue length does an incoming req see
system.mem_ctrls1.rdQLenPdf::21                     0                       # What read queue length does an incoming req see
system.mem_ctrls1.rdQLenPdf::22                     0                       # What read queue length does an incoming req see
system.mem_ctrls1.rdQLenPdf::23                     0                       # What read queue length does an incoming req see
system.mem_ctrls1.rdQLenPdf::24                     0                       # What read queue length does an incoming req see
system.mem_ctrls1.rdQLenPdf::25                     0                       # What read queue length does an incoming req see
system.mem_ctrls1.rdQLenPdf::26                     0                       # What read queue length does an incoming req see
system.mem_ctrls1.rdQLenPdf::27                     0                       # What read queue length does an incoming req see
system.mem_ctrls1.rdQLenPdf::28                     0                       # What read queue length does an incoming req see
system.mem_ctrls1.rdQLenPdf::29                     0                       # What read queue length does an incoming req see
system.mem_ctrls1.rdQLenPdf::30                     0                       # What read queue length does an incoming req see
system.mem_ctrls1.rdQLenPdf::31                     0                       # What read queue length does an incoming req see
system.mem_ctrls1.wrQLenPdf::0                      0                       # What write queue length does an incoming req see
system.mem_ctrls1.wrQLenPdf::1                      0                       # What write queue length does an incoming req see
system.mem_ctrls1.wrQLenPdf::2                      0                       # What write queue length does an incoming req see
system.mem_ctrls1.wrQLenPdf::3                      0                       # What write queue length does an incoming req see
system.mem_ctrls1.wrQLenPdf::4                      0                       # What write queue length does an incoming req see
system.mem_ctrls1.wrQLenPdf::5                      0                       # What write queue length does an incoming req see
system.mem_ctrls1.wrQLenPdf::6                      0                       # What write queue length does an incoming req see
system.mem_ctrls1.wrQLenPdf::7                      0                       # What write queue length does an incoming req see
system.mem_ctrls1.wrQLenPdf::8                      0                       # What write queue length does an incoming req see
system.mem_ctrls1.wrQLenPdf::9                      0                       # What write queue length does an incoming req see
system.mem_ctrls1.wrQLenPdf::10                     0                       # What write queue length does an incoming req see
system.mem_ctrls1.wrQLenPdf::11                     0                       # What write queue length does an incoming req see
system.mem_ctrls1.wrQLenPdf::12                     0                       # What write queue length does an incoming req see
system.mem_ctrls1.wrQLenPdf::13                     0                       # What write queue length does an incoming req see
system.mem_ctrls1.wrQLenPdf::14                     0                       # What write queue length does an incoming req see
system.mem_ctrls1.wrQLenPdf::15                 25303                       # What write queue length does an incoming req see
system.mem_ctrls1.wrQLenPdf::16                 25787                       # What write queue length does an incoming req see
system.mem_ctrls1.wrQLenPdf::17                 27880                       # What write queue length does an incoming req see
system.mem_ctrls1.wrQLenPdf::18                 28241                       # What write queue length does an incoming req see
system.mem_ctrls1.wrQLenPdf::19                 28229                       # What write queue length does an incoming req see
system.mem_ctrls1.wrQLenPdf::20                 28138                       # What write queue length does an incoming req see
system.mem_ctrls1.wrQLenPdf::21                 28108                       # What write queue length does an incoming req see
system.mem_ctrls1.wrQLenPdf::22                 28108                       # What write queue length does an incoming req see
system.mem_ctrls1.wrQLenPdf::23                 28113                       # What write queue length does an incoming req see
system.mem_ctrls1.wrQLenPdf::24                 28123                       # What write queue length does an incoming req see
system.mem_ctrls1.wrQLenPdf::25                 28141                       # What write queue length does an incoming req see
system.mem_ctrls1.wrQLenPdf::26                 28160                       # What write queue length does an incoming req see
system.mem_ctrls1.wrQLenPdf::27                 28129                       # What write queue length does an incoming req see
system.mem_ctrls1.wrQLenPdf::28                 28222                       # What write queue length does an incoming req see
system.mem_ctrls1.wrQLenPdf::29                 28257                       # What write queue length does an incoming req see
system.mem_ctrls1.wrQLenPdf::30                 28178                       # What write queue length does an incoming req see
system.mem_ctrls1.wrQLenPdf::31                 28102                       # What write queue length does an incoming req see
system.mem_ctrls1.wrQLenPdf::32                 28100                       # What write queue length does an incoming req see
system.mem_ctrls1.wrQLenPdf::33                    30                       # What write queue length does an incoming req see
system.mem_ctrls1.wrQLenPdf::34                     4                       # What write queue length does an incoming req see
system.mem_ctrls1.wrQLenPdf::35                     0                       # What write queue length does an incoming req see
system.mem_ctrls1.wrQLenPdf::36                     0                       # What write queue length does an incoming req see
system.mem_ctrls1.wrQLenPdf::37                     0                       # What write queue length does an incoming req see
system.mem_ctrls1.wrQLenPdf::38                     0                       # What write queue length does an incoming req see
system.mem_ctrls1.wrQLenPdf::39                     0                       # What write queue length does an incoming req see
system.mem_ctrls1.wrQLenPdf::40                     0                       # What write queue length does an incoming req see
system.mem_ctrls1.wrQLenPdf::41                     0                       # What write queue length does an incoming req see
system.mem_ctrls1.wrQLenPdf::42                     0                       # What write queue length does an incoming req see
system.mem_ctrls1.wrQLenPdf::43                     0                       # What write queue length does an incoming req see
system.mem_ctrls1.wrQLenPdf::44                     0                       # What write queue length does an incoming req see
system.mem_ctrls1.wrQLenPdf::45                     0                       # What write queue length does an incoming req see
system.mem_ctrls1.wrQLenPdf::46                     0                       # What write queue length does an incoming req see
system.mem_ctrls1.wrQLenPdf::47                     0                       # What write queue length does an incoming req see
system.mem_ctrls1.wrQLenPdf::48                     0                       # What write queue length does an incoming req see
system.mem_ctrls1.wrQLenPdf::49                     0                       # What write queue length does an incoming req see
system.mem_ctrls1.wrQLenPdf::50                     0                       # What write queue length does an incoming req see
system.mem_ctrls1.wrQLenPdf::51                     0                       # What write queue length does an incoming req see
system.mem_ctrls1.wrQLenPdf::52                     0                       # What write queue length does an incoming req see
system.mem_ctrls1.wrQLenPdf::53                     0                       # What write queue length does an incoming req see
system.mem_ctrls1.wrQLenPdf::54                     0                       # What write queue length does an incoming req see
system.mem_ctrls1.wrQLenPdf::55                     0                       # What write queue length does an incoming req see
system.mem_ctrls1.wrQLenPdf::56                     0                       # What write queue length does an incoming req see
system.mem_ctrls1.wrQLenPdf::57                     0                       # What write queue length does an incoming req see
system.mem_ctrls1.wrQLenPdf::58                     0                       # What write queue length does an incoming req see
system.mem_ctrls1.wrQLenPdf::59                     0                       # What write queue length does an incoming req see
system.mem_ctrls1.wrQLenPdf::60                     0                       # What write queue length does an incoming req see
system.mem_ctrls1.wrQLenPdf::61                     0                       # What write queue length does an incoming req see
system.mem_ctrls1.wrQLenPdf::62                     0                       # What write queue length does an incoming req see
system.mem_ctrls1.wrQLenPdf::63                     0                       # What write queue length does an incoming req see
system.mem_ctrls1.bytesPerActivate::samples      1340043                       # Bytes accessed per row activation
system.mem_ctrls1.bytesPerActivate::mean    68.866566                       # Bytes accessed per row activation
system.mem_ctrls1.bytesPerActivate::gmean    66.918675                       # Bytes accessed per row activation
system.mem_ctrls1.bytesPerActivate::stdev    31.690175                       # Bytes accessed per row activation
system.mem_ctrls1.bytesPerActivate::0-127      1261490     94.14%     94.14% # Bytes accessed per row activation
system.mem_ctrls1.bytesPerActivate::128-255        76247      5.69%     99.83% # Bytes accessed per row activation
system.mem_ctrls1.bytesPerActivate::256-383          703      0.05%     99.88% # Bytes accessed per row activation
system.mem_ctrls1.bytesPerActivate::384-511          219      0.02%     99.90% # Bytes accessed per row activation
system.mem_ctrls1.bytesPerActivate::512-639          190      0.01%     99.91% # Bytes accessed per row activation
system.mem_ctrls1.bytesPerActivate::640-767          183      0.01%     99.92% # Bytes accessed per row activation
system.mem_ctrls1.bytesPerActivate::768-895          144      0.01%     99.94% # Bytes accessed per row activation
system.mem_ctrls1.bytesPerActivate::896-1023          199      0.01%     99.95% # Bytes accessed per row activation
system.mem_ctrls1.bytesPerActivate::1024-1151          668      0.05%    100.00% # Bytes accessed per row activation
system.mem_ctrls1.bytesPerActivate::total      1340043                       # Bytes accessed per row activation
system.mem_ctrls1.rdPerTurnAround::samples        28100                       # Reads before turning the bus around for writes
system.mem_ctrls1.rdPerTurnAround::mean     33.473060                       # Reads before turning the bus around for writes
system.mem_ctrls1.rdPerTurnAround::stdev    11.246692                       # Reads before turning the bus around for writes
system.mem_ctrls1.rdPerTurnAround::0-7             40      0.14%      0.14% # Reads before turning the bus around for writes
system.mem_ctrls1.rdPerTurnAround::8-15           203      0.72%      0.86% # Reads before turning the bus around for writes
system.mem_ctrls1.rdPerTurnAround::16-23         2773      9.87%     10.73% # Reads before turning the bus around for writes
system.mem_ctrls1.rdPerTurnAround::24-31         9616     34.22%     44.95% # Reads before turning the bus around for writes
system.mem_ctrls1.rdPerTurnAround::32-39         9908     35.26%     80.21% # Reads before turning the bus around for writes
system.mem_ctrls1.rdPerTurnAround::40-47         4200     14.95%     95.16% # Reads before turning the bus around for writes
system.mem_ctrls1.rdPerTurnAround::48-55          964      3.43%     98.59% # Reads before turning the bus around for writes
system.mem_ctrls1.rdPerTurnAround::56-63          189      0.67%     99.26% # Reads before turning the bus around for writes
system.mem_ctrls1.rdPerTurnAround::64-71           41      0.15%     99.41% # Reads before turning the bus around for writes
system.mem_ctrls1.rdPerTurnAround::72-79           18      0.06%     99.47% # Reads before turning the bus around for writes
system.mem_ctrls1.rdPerTurnAround::80-87           11      0.04%     99.51% # Reads before turning the bus around for writes
system.mem_ctrls1.rdPerTurnAround::88-95            8      0.03%     99.54% # Reads before turning the bus around for writes
system.mem_ctrls1.rdPerTurnAround::96-103           15      0.05%     99.59% # Reads before turning the bus around for writes
system.mem_ctrls1.rdPerTurnAround::104-111           11      0.04%     99.63% # Reads before turning the bus around for writes
system.mem_ctrls1.rdPerTurnAround::112-119           12      0.04%     99.68% # Reads before turning the bus around for writes
system.mem_ctrls1.rdPerTurnAround::120-127           11      0.04%     99.72% # Reads before turning the bus around for writes
system.mem_ctrls1.rdPerTurnAround::128-135           15      0.05%     99.77% # Reads before turning the bus around for writes
system.mem_ctrls1.rdPerTurnAround::136-143           16      0.06%     99.83% # Reads before turning the bus around for writes
system.mem_ctrls1.rdPerTurnAround::144-151            7      0.02%     99.85% # Reads before turning the bus around for writes
system.mem_ctrls1.rdPerTurnAround::152-159            5      0.02%     99.87% # Reads before turning the bus around for writes
system.mem_ctrls1.rdPerTurnAround::160-167            8      0.03%     99.90% # Reads before turning the bus around for writes
system.mem_ctrls1.rdPerTurnAround::168-175            8      0.03%     99.93% # Reads before turning the bus around for writes
system.mem_ctrls1.rdPerTurnAround::176-183            9      0.03%     99.96% # Reads before turning the bus around for writes
system.mem_ctrls1.rdPerTurnAround::184-191            2      0.01%     99.96% # Reads before turning the bus around for writes
system.mem_ctrls1.rdPerTurnAround::200-207            4      0.01%     99.98% # Reads before turning the bus around for writes
system.mem_ctrls1.rdPerTurnAround::208-215            2      0.01%     99.99% # Reads before turning the bus around for writes
system.mem_ctrls1.rdPerTurnAround::216-223            2      0.01%     99.99% # Reads before turning the bus around for writes
system.mem_ctrls1.rdPerTurnAround::224-231            1      0.00%    100.00% # Reads before turning the bus around for writes
system.mem_ctrls1.rdPerTurnAround::240-247            1      0.00%    100.00% # Reads before turning the bus around for writes
system.mem_ctrls1.rdPerTurnAround::total        28100                       # Reads before turning the bus around for writes
system.mem_ctrls1.wrPerTurnAround::samples        28100                       # Writes before turning the bus around for reads
system.mem_ctrls1.wrPerTurnAround::mean     17.841708                       # Writes before turning the bus around for reads
system.mem_ctrls1.wrPerTurnAround::gmean    17.831062                       # Writes before turning the bus around for reads
system.mem_ctrls1.wrPerTurnAround::stdev     0.599890                       # Writes before turning the bus around for reads
system.mem_ctrls1.wrPerTurnAround::16            2409      8.57%      8.57% # Writes before turning the bus around for reads
system.mem_ctrls1.wrPerTurnAround::17             378      1.35%      9.92% # Writes before turning the bus around for reads
system.mem_ctrls1.wrPerTurnAround::18           24588     87.50%     97.42% # Writes before turning the bus around for reads
system.mem_ctrls1.wrPerTurnAround::19             706      2.51%     99.93% # Writes before turning the bus around for reads
system.mem_ctrls1.wrPerTurnAround::20              15      0.05%     99.99% # Writes before turning the bus around for reads
system.mem_ctrls1.wrPerTurnAround::21               4      0.01%    100.00% # Writes before turning the bus around for reads
system.mem_ctrls1.wrPerTurnAround::total        28100                       # Writes before turning the bus around for reads
system.mem_ctrls1.totQLat                 18841725997                       # Total ticks spent queuing
system.mem_ctrls1.totMemAccLat            36477750997                       # Total ticks spent from burst creation until serviced by the DRAM
system.mem_ctrls1.totBusLat                4702940000                       # Total ticks spent in databus transfers
system.mem_ctrls1.avgQLat                    20031.86                       # Average queueing delay per DRAM burst
system.mem_ctrls1.avgBusLat                   5000.00                       # Average bus latency per DRAM burst
system.mem_ctrls1.avgMemAccLat               38781.86                       # Average memory access latency per DRAM burst
system.mem_ctrls1.avgRdBW                       76.01                       # Average DRAM read bandwidth in MiByte/s
system.mem_ctrls1.avgWrBW                       40.52                       # Average achieved write bandwidth in MiByte/s
system.mem_ctrls1.avgRdBWSys                    76.06                       # Average system read bandwidth in MiByte/s
system.mem_ctrls1.avgWrBWSys                    40.52                       # Average system write bandwidth in MiByte/s
system.mem_ctrls1.peakBW                     12800.00                       # Theoretical peak bandwidth in MiByte/s
system.mem_ctrls1.busUtil                        0.91                       # Data bus utilization in percentage
system.mem_ctrls1.busUtilRead                    0.59                       # Data bus utilization in percentage for reads
system.mem_ctrls1.busUtilWrite                   0.32                       # Data bus utilization in percentage for writes
system.mem_ctrls1.avgRdQLen                      1.00                       # Average read queue length when enqueuing
system.mem_ctrls1.avgWrQLen                     24.57                       # Average write queue length when enqueuing
system.mem_ctrls1.readRowHits                   44324                       # Number of row buffer hits during reads
system.mem_ctrls1.writeRowHits                  57573                       # Number of row buffer hits during writes
system.mem_ctrls1.readRowHitRate                 4.71                       # Row buffer hit rate for reads
system.mem_ctrls1.writeRowHitRate               11.48                       # Row buffer hit rate for writes
system.mem_ctrls1.avgGap                    548979.50                       # Average gap between requests
system.mem_ctrls1.pageHitRate                    7.07                       # Row buffer hit rate, read and write combined
system.mem_ctrls1_0.actEnergy              5113924200                       # Energy for activate commands per rank (pJ)
system.mem_ctrls1_0.preEnergy              2790335625                       # Energy for precharge commands per rank (pJ)
system.mem_ctrls1_0.readEnergy             3734686800                       # Energy for read commands per rank (pJ)
system.mem_ctrls1_0.writeEnergy            1637126640                       # Energy for write commands per rank (pJ)
system.mem_ctrls1_0.refreshEnergy         52264711200                       # Energy for refresh commands per rank (pJ)
system.mem_ctrls1_0.actBackEnergy        434662334145                       # Energy for active background per rank (pJ)
system.mem_ctrls1_0.preBackEnergy         98833154250                       # Energy for precharge background per rank (pJ)
system.mem_ctrls1_0.totalEnergy          599036272860                       # Total energy per rank (pJ)
system.mem_ctrls1_0.averagePower           748.614576                       # Core power per rank (mW)
system.mem_ctrls1_0.memoryStateTime::IDLE 156948683750                       # Time in different power states
system.mem_ctrls1_0.memoryStateTime::REF  26444080000                       # Time in different power states
system.mem_ctrls1_0.memoryStateTime::PRE_PDN            0                       # Time in different power states
system.mem_ctrls1_0.memoryStateTime::ACT 608529927750                       # Time in different power states
system.mem_ctrls1_0.memoryStateTime::ACT_PDN            0                       # Time in different power states
system.mem_ctrls1_1.actEnergy              5036978520                       # Energy for activate commands per rank (pJ)
system.mem_ctrls1_1.preEnergy              2748351375                       # Energy for precharge commands per rank (pJ)
system.mem_ctrls1_1.readEnergy             3678807600                       # Energy for read commands per rank (pJ)
system.mem_ctrls1_1.writeEnergy            1612684080                       # Energy for write commands per rank (pJ)
system.mem_ctrls1_1.refreshEnergy         52264711200                       # Energy for refresh commands per rank (pJ)
system.mem_ctrls1_1.actBackEnergy        434266368255                       # Energy for active background per rank (pJ)
system.mem_ctrls1_1.preBackEnergy         99180492750                       # Energy for precharge background per rank (pJ)
system.mem_ctrls1_1.totalEnergy          598788393780                       # Total energy per rank (pJ)
system.mem_ctrls1_1.averagePower           748.304802                       # Core power per rank (mW)
system.mem_ctrls1_1.memoryStateTime::IDLE 158483355000                       # Time in different power states
system.mem_ctrls1_1.memoryStateTime::REF  26444080000                       # Time in different power states
system.mem_ctrls1_1.memoryStateTime::PRE_PDN            0                       # Time in different power states
system.mem_ctrls1_1.memoryStateTime::ACT 606996480000                       # Time in different power states
system.mem_ctrls1_1.memoryStateTime::ACT_PDN            0                       # Time in different power states
system.mem_ctrls2.bytes_read::ruby.dir_cntrl2     60153792                       # Number of bytes read from this memory
system.mem_ctrls2.bytes_read::total          60153792                       # Number of bytes read from this memory
system.mem_ctrls2.bytes_written::ruby.dir_cntrl2     32067328                       # Number of bytes written to this memory
system.mem_ctrls2.bytes_written::total       32067328                       # Number of bytes written to this memory
system.mem_ctrls2.num_reads::ruby.dir_cntrl2       939903                       # Number of read requests responded to by this memory
system.mem_ctrls2.num_reads::total             939903                       # Number of read requests responded to by this memory
system.mem_ctrls2.num_writes::ruby.dir_cntrl2       501052                       # Number of write requests responded to by this memory
system.mem_ctrls2.num_writes::total            501052                       # Number of write requests responded to by this memory
system.mem_ctrls2.bw_read::ruby.dir_cntrl2     75959180                       # Total read bandwidth from this memory (bytes/s)
system.mem_ctrls2.bw_read::total             75959180                       # Total read bandwidth from this memory (bytes/s)
system.mem_ctrls2.bw_write::ruby.dir_cntrl2     40493007                       # Write bandwidth from this memory (bytes/s)
system.mem_ctrls2.bw_write::total            40493007                       # Write bandwidth from this memory (bytes/s)
system.mem_ctrls2.bw_total::ruby.dir_cntrl2    116452187                       # Total bandwidth to/from this memory (bytes/s)
system.mem_ctrls2.bw_total::total           116452187                       # Total bandwidth to/from this memory (bytes/s)
system.mem_ctrls2.readReqs                     939903                       # Number of read requests accepted
system.mem_ctrls2.writeReqs                    501052                       # Number of write requests accepted
system.mem_ctrls2.readBursts                   939903                       # Number of DRAM read bursts, including those serviced by the write queue
system.mem_ctrls2.writeBursts                  501052                       # Number of DRAM write bursts, including those merged in the write queue
system.mem_ctrls2.bytesReadDRAM              60112128                       # Total number of bytes read from DRAM
system.mem_ctrls2.bytesReadWrQ                  41664                       # Total number of bytes read from write queue
system.mem_ctrls2.bytesWritten               32067584                       # Total number of bytes written to DRAM
system.mem_ctrls2.bytesReadSys               60153792                       # Total read bytes from the system interface side
system.mem_ctrls2.bytesWrittenSys            32067328                       # Total written bytes from the system interface side
system.mem_ctrls2.servicedByWrQ                   651                       # Number of DRAM read bursts serviced by the write queue
system.mem_ctrls2.mergedWrBursts                    0                       # Number of DRAM write bursts merged with an existing one
system.mem_ctrls2.neitherReadNorWriteReqs            0                       # Number of requests that are neither read nor write
system.mem_ctrls2.perBankRdBursts::0            59548                       # Per bank write bursts
system.mem_ctrls2.perBankRdBursts::1            60350                       # Per bank write bursts
system.mem_ctrls2.perBankRdBursts::2            59581                       # Per bank write bursts
system.mem_ctrls2.perBankRdBursts::3            59996                       # Per bank write bursts
system.mem_ctrls2.perBankRdBursts::4            63631                       # Per bank write bursts
system.mem_ctrls2.perBankRdBursts::5            59144                       # Per bank write bursts
system.mem_ctrls2.perBankRdBursts::6            57386                       # Per bank write bursts
system.mem_ctrls2.perBankRdBursts::7            54410                       # Per bank write bursts
system.mem_ctrls2.perBankRdBursts::8            56416                       # Per bank write bursts
system.mem_ctrls2.perBankRdBursts::9            57181                       # Per bank write bursts
system.mem_ctrls2.perBankRdBursts::10           55699                       # Per bank write bursts
system.mem_ctrls2.perBankRdBursts::11           54827                       # Per bank write bursts
system.mem_ctrls2.perBankRdBursts::12           60567                       # Per bank write bursts
system.mem_ctrls2.perBankRdBursts::13           60842                       # Per bank write bursts
system.mem_ctrls2.perBankRdBursts::14           59291                       # Per bank write bursts
system.mem_ctrls2.perBankRdBursts::15           60383                       # Per bank write bursts
system.mem_ctrls2.perBankWrBursts::0            30747                       # Per bank write bursts
system.mem_ctrls2.perBankWrBursts::1            31075                       # Per bank write bursts
system.mem_ctrls2.perBankWrBursts::2            30391                       # Per bank write bursts
system.mem_ctrls2.perBankWrBursts::3            30520                       # Per bank write bursts
system.mem_ctrls2.perBankWrBursts::4            33628                       # Per bank write bursts
system.mem_ctrls2.perBankWrBursts::5            32768                       # Per bank write bursts
system.mem_ctrls2.perBankWrBursts::6            32753                       # Per bank write bursts
system.mem_ctrls2.perBankWrBursts::7            31076                       # Per bank write bursts
system.mem_ctrls2.perBankWrBursts::8            31395                       # Per bank write bursts
system.mem_ctrls2.perBankWrBursts::9            31550                       # Per bank write bursts
system.mem_ctrls2.perBankWrBursts::10           31118                       # Per bank write bursts
system.mem_ctrls2.perBankWrBursts::11           30783                       # Per bank write bursts
system.mem_ctrls2.perBankWrBursts::12           31274                       # Per bank write bursts
system.mem_ctrls2.perBankWrBursts::13           30772                       # Per bank write bursts
system.mem_ctrls2.perBankWrBursts::14           30646                       # Per bank write bursts
system.mem_ctrls2.perBankWrBursts::15           30560                       # Per bank write bursts
system.mem_ctrls2.numRdRetry                        0                       # Number of times read queue was full causing retry
system.mem_ctrls2.numWrRetry                        0                       # Number of times write queue was full causing retry
system.mem_ctrls2.totGap                 791922387500                       # Total gap between requests
system.mem_ctrls2.readPktSize::0                    0                       # Read request sizes (log2)
system.mem_ctrls2.readPktSize::1                    0                       # Read request sizes (log2)
system.mem_ctrls2.readPktSize::2                    0                       # Read request sizes (log2)
system.mem_ctrls2.readPktSize::3                    0                       # Read request sizes (log2)
system.mem_ctrls2.readPktSize::4                    0                       # Read request sizes (log2)
system.mem_ctrls2.readPktSize::5                    0                       # Read request sizes (log2)
system.mem_ctrls2.readPktSize::6               939903                       # Read request sizes (log2)
system.mem_ctrls2.writePktSize::0                   0                       # Write request sizes (log2)
system.mem_ctrls2.writePktSize::1                   0                       # Write request sizes (log2)
system.mem_ctrls2.writePktSize::2                   0                       # Write request sizes (log2)
system.mem_ctrls2.writePktSize::3                   0                       # Write request sizes (log2)
system.mem_ctrls2.writePktSize::4                   0                       # Write request sizes (log2)
system.mem_ctrls2.writePktSize::5                   0                       # Write request sizes (log2)
system.mem_ctrls2.writePktSize::6              501052                       # Write request sizes (log2)
system.mem_ctrls2.rdQLenPdf::0                 938034                       # What read queue length does an incoming req see
system.mem_ctrls2.rdQLenPdf::1                   1214                       # What read queue length does an incoming req see
system.mem_ctrls2.rdQLenPdf::2                      4                       # What read queue length does an incoming req see
system.mem_ctrls2.rdQLenPdf::3                      0                       # What read queue length does an incoming req see
system.mem_ctrls2.rdQLenPdf::4                      0                       # What read queue length does an incoming req see
system.mem_ctrls2.rdQLenPdf::5                      0                       # What read queue length does an incoming req see
system.mem_ctrls2.rdQLenPdf::6                      0                       # What read queue length does an incoming req see
system.mem_ctrls2.rdQLenPdf::7                      0                       # What read queue length does an incoming req see
system.mem_ctrls2.rdQLenPdf::8                      0                       # What read queue length does an incoming req see
system.mem_ctrls2.rdQLenPdf::9                      0                       # What read queue length does an incoming req see
system.mem_ctrls2.rdQLenPdf::10                     0                       # What read queue length does an incoming req see
system.mem_ctrls2.rdQLenPdf::11                     0                       # What read queue length does an incoming req see
system.mem_ctrls2.rdQLenPdf::12                     0                       # What read queue length does an incoming req see
system.mem_ctrls2.rdQLenPdf::13                     0                       # What read queue length does an incoming req see
system.mem_ctrls2.rdQLenPdf::14                     0                       # What read queue length does an incoming req see
system.mem_ctrls2.rdQLenPdf::15                     0                       # What read queue length does an incoming req see
system.mem_ctrls2.rdQLenPdf::16                     0                       # What read queue length does an incoming req see
system.mem_ctrls2.rdQLenPdf::17                     0                       # What read queue length does an incoming req see
system.mem_ctrls2.rdQLenPdf::18                     0                       # What read queue length does an incoming req see
system.mem_ctrls2.rdQLenPdf::19                     0                       # What read queue length does an incoming req see
system.mem_ctrls2.rdQLenPdf::20                     0                       # What read queue length does an incoming req see
system.mem_ctrls2.rdQLenPdf::21                     0                       # What read queue length does an incoming req see
system.mem_ctrls2.rdQLenPdf::22                     0                       # What read queue length does an incoming req see
system.mem_ctrls2.rdQLenPdf::23                     0                       # What read queue length does an incoming req see
system.mem_ctrls2.rdQLenPdf::24                     0                       # What read queue length does an incoming req see
system.mem_ctrls2.rdQLenPdf::25                     0                       # What read queue length does an incoming req see
system.mem_ctrls2.rdQLenPdf::26                     0                       # What read queue length does an incoming req see
system.mem_ctrls2.rdQLenPdf::27                     0                       # What read queue length does an incoming req see
system.mem_ctrls2.rdQLenPdf::28                     0                       # What read queue length does an incoming req see
system.mem_ctrls2.rdQLenPdf::29                     0                       # What read queue length does an incoming req see
system.mem_ctrls2.rdQLenPdf::30                     0                       # What read queue length does an incoming req see
system.mem_ctrls2.rdQLenPdf::31                     0                       # What read queue length does an incoming req see
system.mem_ctrls2.wrQLenPdf::0                      0                       # What write queue length does an incoming req see
system.mem_ctrls2.wrQLenPdf::1                      0                       # What write queue length does an incoming req see
system.mem_ctrls2.wrQLenPdf::2                      0                       # What write queue length does an incoming req see
system.mem_ctrls2.wrQLenPdf::3                      0                       # What write queue length does an incoming req see
system.mem_ctrls2.wrQLenPdf::4                      0                       # What write queue length does an incoming req see
system.mem_ctrls2.wrQLenPdf::5                      0                       # What write queue length does an incoming req see
system.mem_ctrls2.wrQLenPdf::6                      0                       # What write queue length does an incoming req see
[...]
system.ruby.L1Cache_Controller.O.Fwd_GETX::total         5989                      
system.ruby.L1Cache_Controller.O.Fwd_GETS |        8825     27.55%     27.55% |         733      2.29%     29.84% |         786      2.45%     32.29% |       21689     67.71%    100.00%
system.ruby.L1Cache_Controller.O.Fwd_GETS::total        32033                      
system.ruby.L1Cache_Controller.M.Load    |       72861      0.45%      0.45% |     3766743     23.21%     23.65% |    12348629     76.08%     99.73% |       43545      0.27%    100.00%
system.ruby.L1Cache_Controller.M.Load::total     16231778                      
system.ruby.L1Cache_Controller.M.Store   |        5285      2.34%      2.34% |      106437     47.17%     49.51% |      111887     49.58%     99.09% |        2059      0.91%    100.00%
system.ruby.L1Cache_Controller.M.Store::total       225668                      
system.ruby.L1Cache_Controller.M.L1_Replacement |        4758      0.27%      0.27% |      695475     39.03%     39.30% |     1078311     60.52%     99.82% |        3171      0.18%    100.00%
system.ruby.L1Cache_Controller.M.L1_Replacement::total      1781715                      
system.ruby.L1Cache_Controller.M.Fwd_GETX |         476     26.59%     26.59% |         695     38.83%     65.42% |         229     12.79%     78.21% |         390     21.79%    100.00%
system.ruby.L1Cache_Controller.M.Fwd_GETX::total         1790                      
system.ruby.L1Cache_Controller.M.Fwd_GETS |        1766     24.83%     24.83% |        1465     20.60%     45.42% |        1177     16.55%     61.97% |        2705     38.03%    100.00%
system.ruby.L1Cache_Controller.M.Fwd_GETS::total         7113                      
system.ruby.L1Cache_Controller.M_W.Load  |        8723      4.25%      4.25% |       82855     40.40%     44.65% |      108066     52.69%     97.34% |        5457      2.66%    100.00%
system.ruby.L1Cache_Controller.M_W.Load::total       205101                      
system.ruby.L1Cache_Controller.M_W.Store |        1750      5.54%      5.54% |       23195     73.44%     78.98% |        5615     17.78%     96.76% |        1022      3.24%    100.00%
system.ruby.L1Cache_Controller.M_W.Store::total        31582                      
system.ruby.L1Cache_Controller.M_W.L1_Replacement |          83     51.88%     51.88% |          11      6.88%     58.75% |          66     41.25%    100.00% |           0      0.00%    100.00%
system.ruby.L1Cache_Controller.M_W.L1_Replacement::total          160                      
system.ruby.L1Cache_Controller.M_W.Fwd_GETX |           6     30.00%     30.00% |           3     15.00%     45.00% |           2     10.00%     55.00% |           9     45.00%    100.00%
system.ruby.L1Cache_Controller.M_W.Fwd_GETX::total           20                      
system.ruby.L1Cache_Controller.M_W.Fwd_GETS |          24     11.27%     11.27% |          50     23.47%     34.74% |          59     27.70%     62.44% |          80     37.56%    100.00%
system.ruby.L1Cache_Controller.M_W.Fwd_GETS::total          213                      
system.ruby.L1Cache_Controller.M_W.Use_Timeout |       12282      0.61%      0.61% |      803957     39.87%     40.48% |     1191701     59.10%     99.59% |        8340      0.41%    100.00%
system.ruby.L1Cache_Controller.M_W.Use_Timeout::total      2016280                      
system.ruby.L1Cache_Controller.MM.Load   |      687384      2.51%      2.51% |    10488869     38.28%     40.79% |    15810923     57.70%     98.48% |      415486      1.52%    100.00%
system.ruby.L1Cache_Controller.MM.Load::total     27402662                      
system.ruby.L1Cache_Controller.MM.Store  |      731260      2.22%      2.22% |    12175736     37.03%     39.25% |    19543769     59.43%     98.68% |      434216      1.32%    100.00%
system.ruby.L1Cache_Controller.MM.Store::total     32884981                      
system.ruby.L1Cache_Controller.MM.L1_Replacement |       23174      0.48%      0.48% |     2327937     48.08%     48.56% |     2467003     50.95%     99.50% |       23987      0.50%    100.00%
system.ruby.L1Cache_Controller.MM.L1_Replacement::total      4842101                      
system.ruby.L1Cache_Controller.MM.Fwd_GETX |         506     19.90%     19.90% |         768     30.20%     50.10% |         541     21.27%     71.37% |         728     28.63%    100.00%
system.ruby.L1Cache_Controller.MM.Fwd_GETX::total         2543                      
system.ruby.L1Cache_Controller.MM.Fwd_GETS |        3631     37.04%     37.04% |        2420     24.69%     61.73% |        1513     15.44%     77.17% |        2238     22.83%    100.00%
system.ruby.L1Cache_Controller.MM.Fwd_GETS::total         9802                      
system.ruby.L1Cache_Controller.MM.Fwd_DMA |         102     23.61%     23.61% |         188     43.52%     67.13% |          48     11.11%     78.24% |          94     21.76%    100.00%
system.ruby.L1Cache_Controller.MM.Fwd_DMA::total          432                      
system.ruby.L1Cache_Controller.MM_W.Load |        2533      4.96%      4.96% |       32784     64.25%     69.22% |        8291     16.25%     85.46% |        7417     14.54%    100.00%
system.ruby.L1Cache_Controller.MM_W.Load::total        51025                      
system.ruby.L1Cache_Controller.MM_W.Store |       79559      1.79%      1.79% |     1860400     41.92%     43.71% |     2405347     54.19%     97.90% |       93161      2.10%    100.00%
system.ruby.L1Cache_Controller.MM_W.Store::total      4438467                      
system.ruby.L1Cache_Controller.MM_W.L1_Replacement |           0      0.00%      0.00% |          33     25.98%     25.98% |          94     74.02%    100.00% |           0      0.00%    100.00%
system.ruby.L1Cache_Controller.MM_W.L1_Replacement::total          127                      
system.ruby.L1Cache_Controller.MM_W.Fwd_GETX |           0      0.00%      0.00% |           4     33.33%     33.33% |           4     33.33%     66.67% |           4     33.33%    100.00%
system.ruby.L1Cache_Controller.MM_W.Fwd_GETX::total           12                      
system.ruby.L1Cache_Controller.MM_W.Fwd_GETS |          39     11.68%     11.68% |          89     26.65%     38.32% |         111     33.23%     71.56% |          95     28.44%    100.00%
system.ruby.L1Cache_Controller.MM_W.Fwd_GETS::total          334                      
system.ruby.L1Cache_Controller.MM_W.Use_Timeout |       22224      0.48%      0.48% |     2224536     48.06%     48.54% |     2357435     50.93%     99.47% |       24605      0.53%    100.00%
system.ruby.L1Cache_Controller.MM_W.Use_Timeout::total      4628800                      
system.ruby.L1Cache_Controller.IM.Ack    |        3251     44.81%     44.81% |        1254     17.28%     62.10% |        1418     19.55%     81.64% |        1332     18.36%    100.00%
system.ruby.L1Cache_Controller.IM.Ack::total         7255                      
system.ruby.L1Cache_Controller.IM.Exclusive_Data |       13527      0.37%      0.37% |     1343077     36.40%     36.77% |     2321525     62.92%     99.68% |       11674      0.32%    100.00%
system.ruby.L1Cache_Controller.IM.Exclusive_Data::total      3689803                      
system.ruby.L1Cache_Controller.SM.Ack    |        2538     43.61%     43.61% |         842     14.47%     58.08% |        1319     22.66%     80.74% |        1121     19.26%    100.00%
system.ruby.L1Cache_Controller.SM.Ack::total         5820                      
system.ruby.L1Cache_Controller.SM.Exclusive_Data |        6936      0.76%      0.76% |      858232     94.59%     95.36% |       30250      3.33%     98.69% |       11872      1.31%    100.00%
system.ruby.L1Cache_Controller.SM.Exclusive_Data::total       907290                      
system.ruby.L1Cache_Controller.OM.Own_GETX |          11      8.80%      8.80% |          32     25.60%     34.40% |          45     36.00%     70.40% |          37     29.60%    100.00%
system.ruby.L1Cache_Controller.OM.Own_GETX::total          125                      
system.ruby.L1Cache_Controller.OM.Ack    |         489     22.31%     22.31% |         545     24.86%     47.17% |         808     36.86%     84.03% |         350     15.97%    100.00%
system.ruby.L1Cache_Controller.OM.Ack::total         2192                      
system.ruby.L1Cache_Controller.OM.All_acks |       20474      0.45%      0.45% |     2201341     47.88%     48.33% |     2351820     51.16%     99.49% |       23583      0.51%    100.00%
system.ruby.L1Cache_Controller.OM.All_acks::total      4597218                      
system.ruby.L1Cache_Controller.IS.Data   |       75069      1.00%      1.00% |     3550157     47.37%     48.37% |     3817473     50.94%     99.31% |       51670      0.69%    100.00%
system.ruby.L1Cache_Controller.IS.Data::total      7494369                      
system.ruby.L1Cache_Controller.IS.Exclusive_Data |       14032      0.69%      0.69% |      827152     40.39%     41.08% |     1197316     58.47%     99.54% |        9362      0.46%    100.00%
system.ruby.L1Cache_Controller.IS.Exclusive_Data::total      2047862                      
system.ruby.L1Cache_Controller.SI.Load   |           4     12.90%     12.90% |          20     64.52%     77.42% |           6     19.35%     96.77% |           1      3.23%    100.00%
system.ruby.L1Cache_Controller.SI.Load::total           31                      
system.ruby.L1Cache_Controller.SI.Ifetch |           8    100.00%    100.00% |           0      0.00%    100.00% |           0      0.00%    100.00% |           0      0.00%    100.00%
system.ruby.L1Cache_Controller.SI.Ifetch::total            8                      
system.ruby.L1Cache_Controller.SI.Store  |           0      0.00%      0.00% |           0      0.00%      0.00% |           1    100.00%    100.00% |           0      0.00%    100.00%
system.ruby.L1Cache_Controller.SI.Store::total            1                      
system.ruby.L1Cache_Controller.SI.Writeback_Ack |       53782      1.63%      1.63% |     1084398     32.85%     34.48% |     2128590     64.49%     98.97% |       34102      1.03%    100.00%
system.ruby.L1Cache_Controller.SI.Writeback_Ack::total      3300872                      
system.ruby.L1Cache_Controller.SI.Writeback_Ack_Data |       13454      0.41%      0.41% |     1606066     48.95%     49.36% |     1657116     50.51%     99.87% |        4279      0.13%    100.00%
system.ruby.L1Cache_Controller.SI.Writeback_Ack_Data::total      3280915                      
system.ruby.L1Cache_Controller.OI.Writeback_Ack_Data |         319     29.27%     29.27% |         308     28.26%     57.52% |         239     21.93%     79.45% |         224     20.55%    100.00%
system.ruby.L1Cache_Controller.OI.Writeback_Ack_Data::total         1090                      
system.ruby.L1Cache_Controller.MI.Load   |           8     11.76%     11.76% |           5      7.35%     19.12% |          55     80.88%    100.00% |           0      0.00%    100.00%
system.ruby.L1Cache_Controller.MI.Load::total           68                      
system.ruby.L1Cache_Controller.MI.Store  |           0      0.00%      0.00% |           1     33.33%     33.33% |           2     66.67%    100.00% |           0      0.00%    100.00%
system.ruby.L1Cache_Controller.MI.Store::total            3                      
system.ruby.L1Cache_Controller.MI.Writeback_Ack_Data |       27932      0.42%      0.42% |     3023412     45.64%     46.07% |     3545314     53.52%     99.59% |       27158      0.41%    100.00%
system.ruby.L1Cache_Controller.MI.Writeback_Ack_Data::total      6623816                      
system.ruby.L2Cache_Controller.L1_GETS        9542466      0.00%      0.00%
system.ruby.L2Cache_Controller.L1_GETX        4597224      0.00%      0.00%
system.ruby.L2Cache_Controller.L1_PUTO           1090      0.00%      0.00%
system.ruby.L2Cache_Controller.L1_PUTX        6623816      0.00%      0.00%
system.ruby.L2Cache_Controller.L1_PUTS_only      6438321      0.00%      0.00%
system.ruby.L2Cache_Controller.L1_PUTS         143481      0.00%      0.00%
system.ruby.L2Cache_Controller.Fwd_GETX           894      0.00%      0.00%
system.ruby.L2Cache_Controller.Fwd_DMA            598      0.00%      0.00%
system.ruby.L2Cache_Controller.Inv                 15      0.00%      0.00%
system.ruby.L2Cache_Controller.All_Acks       4035521      0.00%      0.00%
system.ruby.L2Cache_Controller.Data           8179821      0.00%      0.00%
system.ruby.L2Cache_Controller.Data_Exclusive           59      0.00%      0.00%
system.ruby.L2Cache_Controller.L1_WBCLEANDATA      3280915      0.00%      0.00%
system.ruby.L2Cache_Controller.L1_WBDIRTYDATA      6624906      0.00%      0.00%
system.ruby.L2Cache_Controller.Writeback_Ack      4032932      0.00%      0.00%
system.ruby.L2Cache_Controller.Unblock       10795241      0.00%      0.00%
system.ruby.L2Cache_Controller.Exclusive_Unblock      6645080      0.00%      0.00%
system.ruby.L2Cache_Controller.DmaAck             432      0.00%      0.00%
system.ruby.L2Cache_Controller.L2_Replacement      7247909      0.00%      0.00%
system.ruby.L2Cache_Controller.NP.L1_GETS      4144300      0.00%      0.00%
system.ruby.L2Cache_Controller.NP.L1_GETX      3094482      0.00%      0.00%
system.ruby.L2Cache_Controller.ILS.L1_GETS        11488      0.00%      0.00%
system.ruby.L2Cache_Controller.ILS.L1_GETX       880620      0.00%      0.00%
system.ruby.L2Cache_Controller.ILS.L1_PUTS_only      3265887      0.00%      0.00%
system.ruby.L2Cache_Controller.ILS.L1_PUTS        15028      0.00%      0.00%
system.ruby.L2Cache_Controller.ILX.L1_GETS        16915      0.00%      0.00%
system.ruby.L2Cache_Controller.ILX.L1_GETX         4274      0.00%      0.00%
system.ruby.L2Cache_Controller.ILX.L1_PUTX      6623816      0.00%      0.00%
system.ruby.L2Cache_Controller.ILX.Fwd_GETX           59      0.00%      0.00%
system.ruby.L2Cache_Controller.ILX.Fwd_DMA          432      0.00%      0.00%
system.ruby.L2Cache_Controller.ILOX.L1_GETS        11418      0.00%      0.00%
system.ruby.L2Cache_Controller.ILOX.L1_GETX          200      0.00%      0.00%
system.ruby.L2Cache_Controller.ILOX.L1_PUTO          608      0.00%      0.00%
system.ruby.L2Cache_Controller.ILOSX.L1_GETS        20615      0.00%      0.00%
system.ruby.L2Cache_Controller.ILOSX.L1_GETX         5914      0.00%      0.00%
system.ruby.L2Cache_Controller.ILOSX.L1_PUTO          482      0.00%      0.00%
system.ruby.L2Cache_Controller.ILOSX.L1_PUTS_only        12223      0.00%      0.00%
system.ruby.L2Cache_Controller.ILOSX.L1_PUTS        18991      0.00%      0.00%
system.ruby.L2Cache_Controller.S.L1_GETS      3185546      0.00%      0.00%
system.ruby.L2Cache_Controller.S.L1_GETX        37395      0.00%      0.00%
system.ruby.L2Cache_Controller.S.Inv               15      0.00%      0.00%
system.ruby.L2Cache_Controller.S.L2_Replacement      3197750      0.00%      0.00%
system.ruby.L2Cache_Controller.OLSX.L1_GETS          534      0.00%      0.00%
system.ruby.L2Cache_Controller.OLSX.L1_GETX          110      0.00%      0.00%
system.ruby.L2Cache_Controller.OLSX.L1_PUTS_only          241      0.00%      0.00%
system.ruby.L2Cache_Controller.OLSX.L1_PUTS          431      0.00%      0.00%
system.ruby.L2Cache_Controller.OLSX.L2_Replacement          142      0.00%      0.00%
system.ruby.L2Cache_Controller.SLS.L1_GETS       113355      0.00%      0.00%
system.ruby.L2Cache_Controller.SLS.L1_GETX        23024      0.00%      0.00%
system.ruby.L2Cache_Controller.SLS.L1_PUTS_only      3159967      0.00%      0.00%
system.ruby.L2Cache_Controller.SLS.L1_PUTS       109019      0.00%      0.00%
system.ruby.L2Cache_Controller.SLS.L2_Replacement        17227      0.00%      0.00%
system.ruby.L2Cache_Controller.M.L1_GETS      2038060      0.00%      0.00%
system.ruby.L2Cache_Controller.M.L1_GETX       551199      0.00%      0.00%
system.ruby.L2Cache_Controller.M.Fwd_GETX          835      0.00%      0.00%
system.ruby.L2Cache_Controller.M.Fwd_DMA          166      0.00%      0.00%
system.ruby.L2Cache_Controller.M.L2_Replacement      4032790      0.00%      0.00%
system.ruby.L2Cache_Controller.IFGX.Data_Exclusive           59      0.00%      0.00%
system.ruby.L2Cache_Controller.ILOXW.L1_WBDIRTYDATA          608      0.00%      0.00%
system.ruby.L2Cache_Controller.ILOXW.Unblock        12223      0.00%      0.00%
system.ruby.L2Cache_Controller.ILOSXW.L1_WBDIRTYDATA          482      0.00%      0.00%
system.ruby.L2Cache_Controller.ILOSXW.Unblock        18991      0.00%      0.00%
system.ruby.L2Cache_Controller.SLSW.L1_GETS            1      0.00%      0.00%
system.ruby.L2Cache_Controller.SLSW.L1_PUTS            9      0.00%      0.00%
system.ruby.L2Cache_Controller.SLSW.Unblock       109019      0.00%      0.00%
system.ruby.L2Cache_Controller.ILSW.L1_PUTS            3      0.00%      0.00%
system.ruby.L2Cache_Controller.ILSW.L1_WBCLEANDATA        15028      0.00%      0.00%
system.ruby.L2Cache_Controller.IW.L1_GETS            2      0.00%      0.00%
system.ruby.L2Cache_Controller.IW.L1_WBCLEANDATA      3265887      0.00%      0.00%
system.ruby.L2Cache_Controller.SW.L1_GETS            2      0.00%      0.00%
system.ruby.L2Cache_Controller.SW.Unblock      3159967      0.00%      0.00%
system.ruby.L2Cache_Controller.OXW.Unblock          241      0.00%      0.00%
system.ruby.L2Cache_Controller.OLSXW.Unblock          431      0.00%      0.00%
system.ruby.L2Cache_Controller.ILXW.L1_WBDIRTYDATA      6623816      0.00%      0.00%
system.ruby.L2Cache_Controller.IFLS.L1_GETS            3      0.00%      0.00%
system.ruby.L2Cache_Controller.IFLS.Unblock        11488      0.00%      0.00%
system.ruby.L2Cache_Controller.IFLOX.Unblock        11418      0.00%      0.00%
system.ruby.L2Cache_Controller.IFLOX.Exclusive_Unblock          110      0.00%      0.00%
system.ruby.L2Cache_Controller.IFLOXX.L1_GETS           83      0.00%      0.00%
system.ruby.L2Cache_Controller.IFLOXX.L1_GETX            5      0.00%      0.00%
system.ruby.L2Cache_Controller.IFLOXX.Unblock         7113      0.00%      0.00%
system.ruby.L2Cache_Controller.IFLOXX.Exclusive_Unblock        14276      0.00%      0.00%
system.ruby.L2Cache_Controller.IFLOSX.Unblock        20615      0.00%      0.00%
system.ruby.L2Cache_Controller.IFLXO.L1_GETS           67      0.00%      0.00%
system.ruby.L2Cache_Controller.IFLXO.Exclusive_Unblock         5914      0.00%      0.00%
system.ruby.L2Cache_Controller.IGS.L1_GETS           65      0.00%      0.00%
system.ruby.L2Cache_Controller.IGS.Data       4144300      0.00%      0.00%
system.ruby.L2Cache_Controller.IGS.Unblock      4144300      0.00%      0.00%
system.ruby.L2Cache_Controller.IGM.Data       3131877      0.00%      0.00%
system.ruby.L2Cache_Controller.IGMLS.Data       903644      0.00%      0.00%
system.ruby.L2Cache_Controller.IGMO.All_Acks      4035521      0.00%      0.00%
system.ruby.L2Cache_Controller.IGMO.Exclusive_Unblock      4035521      0.00%      0.00%
system.ruby.L2Cache_Controller.MM.Exclusive_Unblock       551199      0.00%      0.00%
system.ruby.L2Cache_Controller.SS.L1_GETS            4      0.00%      0.00%
system.ruby.L2Cache_Controller.SS.Unblock      3185546      0.00%      0.00%
system.ruby.L2Cache_Controller.OO.Exclusive_Unblock      2038060      0.00%      0.00%
system.ruby.L2Cache_Controller.OLSXS.Unblock          534      0.00%      0.00%
system.ruby.L2Cache_Controller.SLSS.L1_GETS            8      0.00%      0.00%
system.ruby.L2Cache_Controller.SLSS.L1_PUTS_only            3      0.00%      0.00%
system.ruby.L2Cache_Controller.SLSS.Unblock       113355      0.00%      0.00%
system.ruby.L2Cache_Controller.MI.L1_GETX            1      0.00%      0.00%
system.ruby.L2Cache_Controller.MI.Writeback_Ack      4032790      0.00%      0.00%
system.ruby.L2Cache_Controller.OLSI.Writeback_Ack          142      0.00%      0.00%
system.ruby.L2Cache_Controller.ILXD.DmaAck          432      0.00%      0.00%

---------- End Simulation Statistics   ----------
