
---------- Begin Simulation Statistics ----------
sim_seconds                                  1.045819                       # Number of seconds simulated
sim_ticks                                1045819308000                       # Number of ticks simulated
final_tick                               54560629033501                       # Number of ticks from beginning of simulation (restored from checkpoints and never reset)
sim_freq                                 1000000000000                       # Frequency of simulated ticks
host_inst_rate                                 124288                       # Simulator instruction rate (inst/s)
host_op_rate                                   205988                       # Simulator op (including micro ops) rate (op/s)
host_tick_rate                              463302239                       # Simulator tick rate (ticks/s)
host_mem_usage                                2166452                       # Number of bytes of host memory used
host_seconds                                  2257.32                       # Real time elapsed on the host
sim_insts                                   280556610                       # Number of instructions simulated
sim_ops                                     464978841                       # Number of ops (including micro ops) simulated
system.voltage_domain.voltage                       1                       # Voltage in Volts
system.clk_domain.clock                          1000                       # Clock period in ticks
system.mem_ctrls0.bytes_read::ruby.dir_cntrl0    126272768                       # Number of bytes read from this memory
system.mem_ctrls0.bytes_read::total         126272768                       # Number of bytes read from this memory
system.mem_ctrls0.bytes_written::ruby.dir_cntrl0    125389632                       # Number of bytes written to this memory
system.mem_ctrls0.bytes_written::total      125389632                       # Number of bytes written to this memory
system.mem_ctrls0.num_reads::ruby.dir_cntrl0      1973012                       # Number of read requests responded to by this memory
system.mem_ctrls0.num_reads::total            1973012                       # Number of read requests responded to by this memory
system.mem_ctrls0.num_writes::ruby.dir_cntrl0      1959213                       # Number of write requests responded to by this memory
system.mem_ctrls0.num_writes::total           1959213                       # Number of write requests responded to by this memory
system.mem_ctrls0.bw_read::ruby.dir_cntrl0    120740521                       # Total read bandwidth from this memory (bytes/s)
system.mem_ctrls0.bw_read::total            120740521                       # Total read bandwidth from this memory (bytes/s)
system.mem_ctrls0.bw_write::ruby.dir_cntrl0    119896077                       # Write bandwidth from this memory (bytes/s)
system.mem_ctrls0.bw_write::total           119896077                       # Write bandwidth from this memory (bytes/s)
system.mem_ctrls0.bw_total::ruby.dir_cntrl0    240636598                       # Total bandwidth to/from this memory (bytes/s)
system.mem_ctrls0.bw_total::total           240636598                       # Total bandwidth to/from this memory (bytes/s)
system.mem_ctrls0.readReqs                    1973012                       # Number of read requests accepted
system.mem_ctrls0.writeReqs                   1959213                       # Number of write requests accepted
system.mem_ctrls0.readBursts                  1973012                       # Number of DRAM read bursts, including those serviced by the write queue
system.mem_ctrls0.writeBursts                 1959213                       # Number of DRAM write bursts, including those merged in the write queue
system.mem_ctrls0.bytesReadDRAM             118933824                       # Total number of bytes read from DRAM
system.mem_ctrls0.bytesReadWrQ                7338944                       # Total number of bytes read from write queue
system.mem_ctrls0.bytesWritten              123663296                       # Total number of bytes written to DRAM
system.mem_ctrls0.bytesReadSys              126272768                       # Total read bytes from the system interface side
system.mem_ctrls0.bytesWrittenSys           125389632                       # Total written bytes from the system interface side
system.mem_ctrls0.servicedByWrQ                114671                       # Number of DRAM read bursts serviced by the write queue
system.mem_ctrls0.mergedWrBursts                26985                       # Number of DRAM write bursts merged with an existing one
system.mem_ctrls0.neitherReadNorWriteReqs            0                       # Number of requests that are neither read nor write
system.mem_ctrls0.perBankRdBursts::0           101252                       # Per bank write bursts
system.mem_ctrls0.perBankRdBursts::1           180921                       # Per bank write bursts
system.mem_ctrls0.perBankRdBursts::2           104034                       # Per bank write bursts
system.mem_ctrls0.perBankRdBursts::3           132377                       # Per bank write bursts
system.mem_ctrls0.perBankRdBursts::4           139657                       # Per bank write bursts
system.mem_ctrls0.perBankRdBursts::5            88702                       # Per bank write bursts
system.mem_ctrls0.perBankRdBursts::6           148173                       # Per bank write bursts
system.mem_ctrls0.perBankRdBursts::7            81334                       # Per bank write bursts
system.mem_ctrls0.perBankRdBursts::8            89553                       # Per bank write bursts
system.mem_ctrls0.perBankRdBursts::9           140282                       # Per bank write bursts
system.mem_ctrls0.perBankRdBursts::10          127060                       # Per bank write bursts
system.mem_ctrls0.perBankRdBursts::11          102690                       # Per bank write bursts
system.mem_ctrls0.perBankRdBursts::12          112946                       # Per bank write bursts
system.mem_ctrls0.perBankRdBursts::13          104980                       # Per bank write bursts
system.mem_ctrls0.perBankRdBursts::14           94480                       # Per bank write bursts
system.mem_ctrls0.perBankRdBursts::15          109900                       # Per bank write bursts
system.mem_ctrls0.perBankWrBursts::0           102360                       # Per bank write bursts
system.mem_ctrls0.perBankWrBursts::1           189227                       # Per bank write bursts
system.mem_ctrls0.perBankWrBursts::2           106226                       # Per bank write bursts
system.mem_ctrls0.perBankWrBursts::3           136211                       # Per bank write bursts
system.mem_ctrls0.perBankWrBursts::4           144850                       # Per bank write bursts
system.mem_ctrls0.perBankWrBursts::5            90276                       # Per bank write bursts
system.mem_ctrls0.perBankWrBursts::6           153961                       # Per bank write bursts
system.mem_ctrls0.perBankWrBursts::7            82246                       # Per bank write bursts
system.mem_ctrls0.perBankWrBursts::8            95960                       # Per bank write bursts
system.mem_ctrls0.perBankWrBursts::9           141888                       # Per bank write bursts
system.mem_ctrls0.perBankWrBursts::10          150508                       # Per bank write bursts
system.mem_ctrls0.perBankWrBursts::11          104590                       # Per bank write bursts
system.mem_ctrls0.perBankWrBursts::12          116105                       # Per bank write bursts
system.mem_ctrls0.perBankWrBursts::13          110311                       # Per bank write bursts
system.mem_ctrls0.perBankWrBursts::14           95381                       # Per bank write bursts
system.mem_ctrls0.perBankWrBursts::15          112139                       # Per bank write bursts
system.mem_ctrls0.numRdRetry                        0                       # Number of times read queue was full causing retry
system.mem_ctrls0.numWrRetry                        0                       # Number of times write queue was full causing retry
system.mem_ctrls0.totGap                 1045819258500                       # Total gap between requests
system.mem_ctrls0.readPktSize::0                    0                       # Read request sizes (log2)
system.mem_ctrls0.readPktSize::1                    0                       # Read request sizes (log2)
system.mem_ctrls0.readPktSize::2                    0                       # Read request sizes (log2)
system.mem_ctrls0.readPktSize::3                    0                       # Read request sizes (log2)
system.mem_ctrls0.readPktSize::4                    0                       # Read request sizes (log2)
system.mem_ctrls0.readPktSize::5                    0                       # Read request sizes (log2)
system.mem_ctrls0.readPktSize::6              1973012                       # Read request sizes (log2)
system.mem_ctrls0.writePktSize::0                   0                       # Write request sizes (log2)
system.mem_ctrls0.writePktSize::1                   0                       # Write request sizes (log2)
system.mem_ctrls0.writePktSize::2                   0                       # Write request sizes (log2)
system.mem_ctrls0.writePktSize::3                   0                       # Write request sizes (log2)
system.mem_ctrls0.writePktSize::4                   0                       # Write request sizes (log2)
system.mem_ctrls0.writePktSize::5                   0                       # Write request sizes (log2)
system.mem_ctrls0.writePktSize::6             1959213                       # Write request sizes (log2)
system.mem_ctrls0.rdQLenPdf::0                1852859                       # What read queue length does an incoming req see
system.mem_ctrls0.rdQLenPdf::1                   5416                       # What read queue length does an incoming req see
system.mem_ctrls0.rdQLenPdf::2                     66                       # What read queue length does an incoming req see
system.mem_ctrls0.rdQLenPdf::3                      0                       # What read queue length does an incoming req see
system.mem_ctrls0.rdQLenPdf::4                      0                       # What read queue length does an incoming req see
system.mem_ctrls0.rdQLenPdf::5                      0                       # What read queue length does an incoming req see
system.mem_ctrls0.rdQLenPdf::6                      0                       # What read queue length does an incoming req see
system.mem_ctrls0.rdQLenPdf::7                      0                       # What read queue length does an incoming req see
system.mem_ctrls0.rdQLenPdf::8                      0                       # What read queue length does an incoming req see
system.mem_ctrls0.rdQLenPdf::9                      0                       # What read queue length does an incoming req see
system.mem_ctrls0.rdQLenPdf::10                     0                       # What read queue length does an incoming req see
system.mem_ctrls0.rdQLenPdf::11                     0                       # What read queue length does an incoming req see
system.mem_ctrls0.rdQLenPdf::12                     0                       # What read queue length does an incoming req see
system.mem_ctrls0.rdQLenPdf::13                     0                       # What read queue length does an incoming req see
system.mem_ctrls0.rdQLenPdf::14                     0                       # What read queue length does an incoming req see
system.mem_ctrls0.rdQLenPdf::15                     0                       # What read queue length does an incoming req see
system.mem_ctrls0.rdQLenPdf::16                     0                       # What read queue length does an incoming req see
system.mem_ctrls0.rdQLenPdf::17                     0                       # What read queue length does an incoming req see
system.mem_ctrls0.rdQLenPdf::18                     0                       # What read queue length does an incoming req see
system.mem_ctrls0.rdQLenPdf::19                     0                       # What read queue length does an incoming req see
system.mem_ctrls0.rdQLenPdf::20                     0                       # What read queue length does an incoming req see
system.mem_ctrls0.rdQLenPdf::21                     0                       # What read queue length does an incoming req see
system.mem_ctrls0.rdQLenPdf::22                     0                       # What read queue length does an incoming req see
system.mem_ctrls0.rdQLenPdf::23                     0                       # What read queue length does an incoming req see
system.mem_ctrls0.rdQLenPdf::24                     0                       # What read queue length does an incoming req see
system.mem_ctrls0.rdQLenPdf::25                     0                       # What read queue length does an incoming req see
system.mem_ctrls0.rdQLenPdf::26                     0                       # What read queue length does an incoming req see
system.mem_ctrls0.rdQLenPdf::27                     0                       # What read queue length does an incoming req see
system.mem_ctrls0.rdQLenPdf::28                     0                       # What read queue length does an incoming req see
system.mem_ctrls0.rdQLenPdf::29                     0                       # What read queue length does an incoming req see
system.mem_ctrls0.rdQLenPdf::30                     0                       # What read queue length does an incoming req see
system.mem_ctrls0.rdQLenPdf::31                     0                       # What read queue length does an incoming req see
system.mem_ctrls0.wrQLenPdf::0                      0                       # What write queue length does an incoming req see
system.mem_ctrls0.wrQLenPdf::1                      0                       # What write queue length does an incoming req see
system.mem_ctrls0.wrQLenPdf::2                      0                       # What write queue length does an incoming req see
system.mem_ctrls0.wrQLenPdf::3                      0                       # What write queue length does an incoming req see
system.mem_ctrls0.wrQLenPdf::4                      0                       # What write queue length does an incoming req see
system.mem_ctrls0.wrQLenPdf::5                      0                       # What write queue length does an incoming req see
system.mem_ctrls0.wrQLenPdf::6                      0                       # What write queue length does an incoming req see
system.mem_ctrls0.wrQLenPdf::7                      0                       # What write queue length does an incoming req see
system.mem_ctrls0.wrQLenPdf::8                      0                       # What write queue length does an incoming req see
system.mem_ctrls0.wrQLenPdf::9                      0                       # What write queue length does an incoming req see
system.mem_ctrls0.wrQLenPdf::10                     0                       # What write queue length does an incoming req see
system.mem_ctrls0.wrQLenPdf::11                     0                       # What write queue length does an incoming req see
system.mem_ctrls0.wrQLenPdf::12                     0                       # What write queue length does an incoming req see
system.mem_ctrls0.wrQLenPdf::13                     0                       # What write queue length does an incoming req see
system.mem_ctrls0.wrQLenPdf::14                     0                       # What write queue length does an incoming req see
system.mem_ctrls0.wrQLenPdf::15                  7294                       # What write queue length does an incoming req see
system.mem_ctrls0.wrQLenPdf::16                  7399                       # What write queue length does an incoming req see
system.mem_ctrls0.wrQLenPdf::17                118550                       # What write queue length does an incoming req see
system.mem_ctrls0.wrQLenPdf::18                119964                       # What write queue length does an incoming req see
system.mem_ctrls0.wrQLenPdf::19                119939                       # What write queue length does an incoming req see
system.mem_ctrls0.wrQLenPdf::20                119919                       # What write queue length does an incoming req see
system.mem_ctrls0.wrQLenPdf::21                119892                       # What write queue length does an incoming req see
system.mem_ctrls0.wrQLenPdf::22                119909                       # What write queue length does an incoming req see
system.mem_ctrls0.wrQLenPdf::23                119964                       # What write queue length does an incoming req see
system.mem_ctrls0.wrQLenPdf::24                120061                       # What write queue length does an incoming req see
system.mem_ctrls0.wrQLenPdf::25                120138                       # What write queue length does an incoming req see
system.mem_ctrls0.wrQLenPdf::26                120124                       # What write queue length does an incoming req see
system.mem_ctrls0.wrQLenPdf::27                119879                       # What write queue length does an incoming req see
system.mem_ctrls0.wrQLenPdf::28                119847                       # What write queue length does an incoming req see
system.mem_ctrls0.wrQLenPdf::29                119834                       # What write queue length does an incoming req see
system.mem_ctrls0.wrQLenPdf::30                119831                       # What write queue length does an incoming req see
system.mem_ctrls0.wrQLenPdf::31                119825                       # What write queue length does an incoming req see
system.mem_ctrls0.wrQLenPdf::32                119826                       # What write queue length does an incoming req see
system.mem_ctrls0.wrQLenPdf::33                    32                       # What write queue length does an incoming req see
system.mem_ctrls0.wrQLenPdf::34                     1                       # What write queue length does an incoming req see
system.mem_ctrls0.wrQLenPdf::35                     0                       # What write queue length does an incoming req see
system.mem_ctrls0.wrQLenPdf::36                     0                       # What write queue length does an incoming req see
system.mem_ctrls0.wrQLenPdf::37                     0                       # What write queue length does an incoming req see
system.mem_ctrls0.wrQLenPdf::38                     0                       # What write queue length does an incoming req see
system.mem_ctrls0.wrQLenPdf::39                     0                       # What write queue length does an incoming req see
system.mem_ctrls0.wrQLenPdf::40                     0                       # What write queue length does an incoming req see
system.mem_ctrls0.wrQLenPdf::41                     0                       # What write queue length does an incoming req see
system.mem_ctrls0.wrQLenPdf::42                     0                       # What write queue length does an incoming req see
system.mem_ctrls0.wrQLenPdf::43                     0                       # What write queue length does an incoming req see
system.mem_ctrls0.wrQLenPdf::44                     0                       # What write queue length does an incoming req see
system.mem_ctrls0.wrQLenPdf::45                     0                       # What write queue length does an incoming req see
system.mem_ctrls0.wrQLenPdf::46                     0                       # What write queue length does an incoming req see
system.mem_ctrls0.wrQLenPdf::47                     0                       # What write queue length does an incoming req see
system.mem_ctrls0.wrQLenPdf::48                     0                       # What write queue length does an incoming req see
system.mem_ctrls0.wrQLenPdf::49                     0                       # What write queue length does an incoming req see
system.mem_ctrls0.wrQLenPdf::50                     0                       # What write queue length does an incoming req see
system.mem_ctrls0.wrQLenPdf::51                     0                       # What write queue length does an incoming req see
system.mem_ctrls0.wrQLenPdf::52                     0                       # What write queue length does an incoming req see
system.mem_ctrls0.wrQLenPdf::53                     0                       # What write queue length does an incoming req see
system.mem_ctrls0.wrQLenPdf::54                     0                       # What write queue length does an incoming req see
system.mem_ctrls0.wrQLenPdf::55                     0                       # What write queue length does an incoming req see
system.mem_ctrls0.wrQLenPdf::56                     0                       # What write queue length does an incoming req see
system.mem_ctrls0.wrQLenPdf::57                     0                       # What write queue length does an incoming req see
system.mem_ctrls0.wrQLenPdf::58                     0                       # What write queue length does an incoming req see
system.mem_ctrls0.wrQLenPdf::59                     0                       # What write queue length does an incoming req see
system.mem_ctrls0.wrQLenPdf::60                     0                       # What write queue length does an incoming req see
system.mem_ctrls0.wrQLenPdf::61                     0                       # What write queue length does an incoming req see
system.mem_ctrls0.wrQLenPdf::62                     0                       # What write queue length does an incoming req see
system.mem_ctrls0.wrQLenPdf::63                     0                       # What write queue length does an incoming req see
system.mem_ctrls0.bytesPerActivate::samples      3215416                       # Bytes accessed per row activation
system.mem_ctrls0.bytesPerActivate::mean    75.448348                       # Bytes accessed per row activation
system.mem_ctrls0.bytesPerActivate::gmean    71.103848                       # Bytes accessed per row activation
system.mem_ctrls0.bytesPerActivate::stdev    38.766610                       # Bytes accessed per row activation
system.mem_ctrls0.bytesPerActivate::0-127      2807474     87.31%     87.31% # Bytes accessed per row activation
system.mem_ctrls0.bytesPerActivate::128-255       376092     11.70%     99.01% # Bytes accessed per row activation
system.mem_ctrls0.bytesPerActivate::256-383        25664      0.80%     99.81% # Bytes accessed per row activation
system.mem_ctrls0.bytesPerActivate::384-511         3313      0.10%     99.91% # Bytes accessed per row activation
system.mem_ctrls0.bytesPerActivate::512-639         1134      0.04%     99.95% # Bytes accessed per row activation
system.mem_ctrls0.bytesPerActivate::640-767          653      0.02%     99.97% # Bytes accessed per row activation
system.mem_ctrls0.bytesPerActivate::768-895          255      0.01%     99.97% # Bytes accessed per row activation
system.mem_ctrls0.bytesPerActivate::896-1023          212      0.01%     99.98% # Bytes accessed per row activation
system.mem_ctrls0.bytesPerActivate::1024-1151          619      0.02%    100.00% # Bytes accessed per row activation
system.mem_ctrls0.bytesPerActivate::total      3215416                       # Bytes accessed per row activation
system.mem_ctrls0.rdPerTurnAround::samples       119826                       # Reads before turning the bus around for writes
system.mem_ctrls0.rdPerTurnAround::mean     15.508704                       # Reads before turning the bus around for writes
system.mem_ctrls0.rdPerTurnAround::stdev     2.746002                       # Reads before turning the bus around for writes
system.mem_ctrls0.rdPerTurnAround::0-3             53      0.04%      0.04% # Reads before turning the bus around for writes
system.mem_ctrls0.rdPerTurnAround::4-7            514      0.43%      0.47% # Reads before turning the bus around for writes
system.mem_ctrls0.rdPerTurnAround::8-11          1041      0.87%      1.34% # Reads before turning the bus around for writes
system.mem_ctrls0.rdPerTurnAround::12-15        52107     43.49%     44.83% # Reads before turning the bus around for writes
system.mem_ctrls0.rdPerTurnAround::16-19        64814     54.09%     98.92% # Reads before turning the bus around for writes
system.mem_ctrls0.rdPerTurnAround::20-23          337      0.28%     99.20% # Reads before turning the bus around for writes
system.mem_ctrls0.rdPerTurnAround::24-27          162      0.14%     99.33% # Reads before turning the bus around for writes
system.mem_ctrls0.rdPerTurnAround::28-31          133      0.11%     99.45% # Reads before turning the bus around for writes
system.mem_ctrls0.rdPerTurnAround::32-35          116      0.10%     99.54% # Reads before turning the bus around for writes
system.mem_ctrls0.rdPerTurnAround::36-39          108      0.09%     99.63% # Reads before turning the bus around for writes
system.mem_ctrls0.rdPerTurnAround::40-43          115      0.10%     99.73% # Reads before turning the bus around for writes
system.mem_ctrls0.rdPerTurnAround::44-47           90      0.08%     99.80% # Reads before turning the bus around for writes
system.mem_ctrls0.rdPerTurnAround::48-51           83      0.07%     99.87% # Reads before turning the bus around for writes
system.mem_ctrls0.rdPerTurnAround::52-55           61      0.05%     99.92% # Reads before turning the bus around for writes
system.mem_ctrls0.rdPerTurnAround::56-59           35      0.03%     99.95% # Reads before turning the bus around for writes
system.mem_ctrls0.rdPerTurnAround::60-63           24      0.02%     99.97% # Reads before turning the bus around for writes
system.mem_ctrls0.rdPerTurnAround::64-67           16      0.01%     99.99% # Reads before turning the bus around for writes
system.mem_ctrls0.rdPerTurnAround::68-71            9      0.01%     99.99% # Reads before turning the bus around for writes
system.mem_ctrls0.rdPerTurnAround::72-75            3      0.00%    100.00% # Reads before turning the bus around for writes
system.mem_ctrls0.rdPerTurnAround::76-79            1      0.00%    100.00% # Reads before turning the bus around for writes
system.mem_ctrls0.rdPerTurnAround::88-91            3      0.00%    100.00% # Reads before turning the bus around for writes
system.mem_ctrls0.rdPerTurnAround::96-99            1      0.00%    100.00% # Reads before turning the bus around for writes
system.mem_ctrls0.rdPerTurnAround::total       119826                       # Reads before turning the bus around for writes
system.mem_ctrls0.wrPerTurnAround::samples       119826                       # Writes before turning the bus around for reads
system.mem_ctrls0.wrPerTurnAround::mean     16.125373                       # Writes before turning the bus around for reads
system.mem_ctrls0.wrPerTurnAround::gmean    16.118443                       # Writes before turning the bus around for reads
system.mem_ctrls0.wrPerTurnAround::stdev     0.490013                       # Writes before turning the bus around for reads
system.mem_ctrls0.wrPerTurnAround::16          112374     93.78%     93.78% # Writes before turning the bus around for reads
system.mem_ctrls0.wrPerTurnAround::17             115      0.10%     93.88% # Writes before turning the bus around for reads
system.mem_ctrls0.wrPerTurnAround::18            7113      5.94%     99.81% # Writes before turning the bus around for reads
system.mem_ctrls0.wrPerTurnAround::19             215      0.18%     99.99% # Writes before turning the bus around for reads
system.mem_ctrls0.wrPerTurnAround::20               8      0.01%    100.00% # Writes before turning the bus around for reads
system.mem_ctrls0.wrPerTurnAround::21               1      0.00%    100.00% # Writes before turning the bus around for reads
system.mem_ctrls0.wrPerTurnAround::total       119826                       # Writes before turning the bus around for reads
system.mem_ctrls0.totQLat                 48397485209                       # Total ticks spent queuing
system.mem_ctrls0.totMemAccLat            83241378959                       # Total ticks spent from burst creation until serviced by the DRAM
system.mem_ctrls0.totBusLat                9291705000                       # Total ticks spent in databus transfers
system.mem_ctrls0.avgQLat                    26043.38                       # Average queueing delay per DRAM burst
system.mem_ctrls0.avgBusLat                   5000.00                       # Average bus latency per DRAM burst
system.mem_ctrls0.avgMemAccLat               44793.38                       # Average memory access latency per DRAM burst
system.mem_ctrls0.avgRdBW                      113.72                       # Average DRAM read bandwidth in MiByte/s
system.mem_ctrls0.avgWrBW                      118.25                       # Average achieved write bandwidth in MiByte/s
system.mem_ctrls0.avgRdBWSys                   120.74                       # Average system read bandwidth in MiByte/s
system.mem_ctrls0.avgWrBWSys                   119.90                       # Average system write bandwidth in MiByte/s
system.mem_ctrls0.peakBW                     12800.00                       # Theoretical peak bandwidth in MiByte/s
system.mem_ctrls0.busUtil                        1.81                       # Data bus utilization in percentage
system.mem_ctrls0.busUtilRead                    0.89                       # Data bus utilization in percentage for reads
system.mem_ctrls0.busUtilWrite                   0.92                       # Data bus utilization in percentage for writes
system.mem_ctrls0.avgRdQLen                      1.00                       # Average read queue length when enqueuing
system.mem_ctrls0.avgWrQLen                     25.52                       # Average write queue length when enqueuing
system.mem_ctrls0.readRowHits                  149510                       # Number of row buffer hits during reads
system.mem_ctrls0.writeRowHits                 425661                       # Number of row buffer hits during writes
system.mem_ctrls0.readRowHitRate                 8.05                       # Row buffer hit rate for reads
system.mem_ctrls0.writeRowHitRate               22.03                       # Row buffer hit rate for writes
system.mem_ctrls0.avgGap                    265961.19                       # Average gap between requests
system.mem_ctrls0.pageHitRate                   15.17                       # Row buffer hit rate, read and write combined
system.mem_ctrls0_0.actEnergy             12552790320                       # Energy for activate commands per rank (pJ)
system.mem_ctrls0_0.preEnergy              6849240750                       # Energy for precharge commands per rank (pJ)
system.mem_ctrls0_0.readEnergy             7682890800                       # Energy for read commands per rank (pJ)
system.mem_ctrls0_0.writeEnergy            6570564480                       # Energy for write commands per rank (pJ)
system.mem_ctrls0_0.refreshEnergy         68983112640                       # Energy for refresh commands per rank (pJ)
system.mem_ctrls0_0.actBackEnergy        631865366100                       # Energy for active background per rank (pJ)
system.mem_ctrls0_0.preBackEnergy         79427148000                       # Energy for precharge background per rank (pJ)
system.mem_ctrls0_0.totalEnergy          813931113090                       # Total energy per rank (pJ)
system.mem_ctrls0_0.averagePower           770.652534                       # Core power per rank (mW)
system.mem_ctrls0_0.memoryStateTime::IDLE 125726426251                       # Time in different power states
system.mem_ctrls0_0.memoryStateTime::REF  34922420000                       # Time in different power states
system.mem_ctrls0_0.memoryStateTime::PRE_PDN            0                       # Time in different power states
system.mem_ctrls0_0.memoryStateTime::ACT 885176816749                       # Time in different power states
system.mem_ctrls0_0.memoryStateTime::ACT_PDN            0                       # Time in different power states
system.mem_ctrls0_1.actEnergy             11866622040                       # Energy for activate commands per rank (pJ)
system.mem_ctrls0_1.preEnergy              6474843375                       # Energy for precharge commands per rank (pJ)
system.mem_ctrls0_1.readEnergy             6959550000                       # Energy for read commands per rank (pJ)
system.mem_ctrls0_1.writeEnergy            6074961120                       # Energy for write commands per rank (pJ)
system.mem_ctrls0_1.refreshEnergy         68983112640                       # Energy for refresh commands per rank (pJ)
system.mem_ctrls0_1.actBackEnergy        623626354395                       # Energy for active background per rank (pJ)
system.mem_ctrls0_1.preBackEnergy         86654351250                       # Energy for precharge background per rank (pJ)
system.mem_ctrls0_1.totalEnergy          810639794820                       # Total energy per rank (pJ)
system.mem_ctrls0_1.averagePower           767.536223                       # Core power per rank (mW)
system.mem_ctrls0_1.memoryStateTime::IDLE 138478463751                       # Time in different power states
system.mem_ctrls0_1.memoryStateTime::REF  34922420000                       # Time in different power states
system.mem_ctrls0_1.memoryStateTime::PRE_PDN            0                       # Time in different power states
system.mem_ctrls0_1.memoryStateTime::ACT 872423712249                       # Time in different power states
system.mem_ctrls0_1.memoryStateTime::ACT_PDN            0                       # Time in different power states
system.mem_ctrls1.bytes_read::ruby.dir_cntrl1    131844992                       # Number of bytes read from this memory
system.mem_ctrls1.bytes_read::total         131844992                       # Number of bytes read from this memory
system.mem_ctrls1.bytes_written::ruby.dir_cntrl1    130964544                       # Number of bytes written to this memory
system.mem_ctrls1.bytes_written::total      130964544                       # Number of bytes written to this memory
system.mem_ctrls1.num_reads::ruby.dir_cntrl1      2060078                       # Number of read requests responded to by this memory
system.mem_ctrls1.num_reads::total            2060078                       # Number of read requests responded to by this memory
system.mem_ctrls1.num_writes::ruby.dir_cntrl1      2046321                       # Number of write requests responded to by this memory
system.mem_ctrls1.num_writes::total           2046321                       # Number of write requests responded to by this memory
system.mem_ctrls1.bw_read::ruby.dir_cntrl1    126068615                       # Total read bandwidth from this memory (bytes/s)
system.mem_ctrls1.bw_read::total            126068615                       # Total read bandwidth from this memory (bytes/s)
system.mem_ctrls1.bw_write::ruby.dir_cntrl1    125226741                       # Write bandwidth from this memory (bytes/s)
system.mem_ctrls1.bw_write::total           125226741                       # Write bandwidth from this memory (bytes/s)
system.mem_ctrls1.bw_total::ruby.dir_cntrl1    251295357                       # Total bandwidth to/from this memory (bytes/s)
system.mem_ctrls1.bw_total::total           251295357                       # Total bandwidth to/from this memory (bytes/s)
system.mem_ctrls1.readReqs                    2060078                       # Number of read requests accepted
system.mem_ctrls1.writeReqs                   2046321                       # Number of write requests accepted
system.mem_ctrls1.readBursts                  2060078                       # Number of DRAM read bursts, including those serviced by the write queue
system.mem_ctrls1.writeBursts                 2046321                       # Number of DRAM write bursts, including those merged in the write queue
system.mem_ctrls1.bytesReadDRAM             120645952                       # Total number of bytes read from DRAM
system.mem_ctrls1.bytesReadWrQ               11199040                       # Total number of bytes read from write queue
system.mem_ctrls1.bytesWritten              126930496                       # Total number of bytes written to DRAM
system.mem_ctrls1.bytesReadSys              131844992                       # Total read bytes from the system interface side
system.mem_ctrls1.bytesWrittenSys           130964544                       # Total written bytes from the system interface side
system.mem_ctrls1.servicedByWrQ                174985                       # Number of DRAM read bursts serviced by the write queue
system.mem_ctrls1.mergedWrBursts                63032                       # Number of DRAM write bursts merged with an existing one
system.mem_ctrls1.neitherReadNorWriteReqs            0                       # Number of requests that are neither read nor write
system.mem_ctrls1.perBankRdBursts::0           101702                       # Per bank write bursts
system.mem_ctrls1.perBankRdBursts::1           183329                       # Per bank write bursts
system.mem_ctrls1.perBankRdBursts::2           102895                       # Per bank write bursts
system.mem_ctrls1.perBankRdBursts::3           135898                       # Per bank write bursts
system.mem_ctrls1.perBankRdBursts::4           139099                       # Per bank write bursts
system.mem_ctrls1.perBankRdBursts::5            95288                       # Per bank write bursts
system.mem_ctrls1.perBankRdBursts::6           147889                       # Per bank write bursts
system.mem_ctrls1.perBankRdBursts::7            81745                       # Per bank write bursts
system.mem_ctrls1.perBankRdBursts::8            95653                       # Per bank write bursts
system.mem_ctrls1.perBankRdBursts::9           143110                       # Per bank write bursts
system.mem_ctrls1.perBankRdBursts::10          144784                       # Per bank write bursts
system.mem_ctrls1.perBankRdBursts::11           97094                       # Per bank write bursts
system.mem_ctrls1.perBankRdBursts::12          110991                       # Per bank write bursts
system.mem_ctrls1.perBankRdBursts::13          101976                       # Per bank write bursts
system.mem_ctrls1.perBankRdBursts::14           94824                       # Per bank write bursts
system.mem_ctrls1.perBankRdBursts::15          108816                       # Per bank write bursts
system.mem_ctrls1.perBankWrBursts::0           102748                       # Per bank write bursts
system.mem_ctrls1.perBankWrBursts::1           191306                       # Per bank write bursts
system.mem_ctrls1.perBankWrBursts::2           104449                       # Per bank write bursts
system.mem_ctrls1.perBankWrBursts::3           139047                       # Per bank write bursts
system.mem_ctrls1.perBankWrBursts::4           140390                       # Per bank write bursts
system.mem_ctrls1.perBankWrBursts::5            96247                       # Per bank write bursts
system.mem_ctrls1.perBankWrBursts::6           153194                       # Per bank write bursts
system.mem_ctrls1.perBankWrBursts::7           101080                       # Per bank write bursts
system.mem_ctrls1.perBankWrBursts::8           120138                       # Per bank write bursts
system.mem_ctrls1.perBankWrBursts::9           146656                       # Per bank write bursts
system.mem_ctrls1.perBankWrBursts::10          168876                       # Per bank write bursts
system.mem_ctrls1.perBankWrBursts::11           97586                       # Per bank write bursts
system.mem_ctrls1.perBankWrBursts::12          112111                       # Per bank write bursts
system.mem_ctrls1.perBankWrBursts::13          103634                       # Per bank write bursts
system.mem_ctrls1.perBankWrBursts::14           95621                       # Per bank write bursts
system.mem_ctrls1.perBankWrBursts::15          110206                       # Per bank write bursts
system.mem_ctrls1.numRdRetry                        0                       # Number of times read queue was full causing retry
system.mem_ctrls1.numWrRetry                        0                       # Number of times write queue was full causing retry
system.mem_ctrls1.totGap                 1045819966000                       # Total gap between requests
system.mem_ctrls1.readPktSize::0                    0                       # Read request sizes (log2)
system.mem_ctrls1.readPktSize::1                    0                       # Read request sizes (log2)
system.mem_ctrls1.readPktSize::2                    0                       # Read request sizes (log2)
system.mem_ctrls1.readPktSize::3                    0                       # Read request sizes (log2)
system.mem_ctrls1.readPktSize::4                    0                       # Read request sizes (log2)
system.mem_ctrls1.readPktSize::5                    0                       # Read request sizes (log2)
system.mem_ctrls1.readPktSize::6              2060078                       # Read request sizes (log2)
system.mem_ctrls1.writePktSize::0                   0                       # Write request sizes (log2)
system.mem_ctrls1.writePktSize::1                   0                       # Write request sizes (log2)
system.mem_ctrls1.writePktSize::2                   0                       # Write request sizes (log2)
system.mem_ctrls1.writePktSize::3                   0                       # Write request sizes (log2)
system.mem_ctrls1.writePktSize::4                   0                       # Write request sizes (log2)
system.mem_ctrls1.writePktSize::5                   0                       # Write request sizes (log2)
system.mem_ctrls1.writePktSize::6             2046321                       # Write request sizes (log2)
system.mem_ctrls1.rdQLenPdf::0                1880135                       # What read queue length does an incoming req see
system.mem_ctrls1.rdQLenPdf::1                   4906                       # What read queue length does an incoming req see
system.mem_ctrls1.rdQLenPdf::2                     52                       # What read queue length does an incoming req see
system.mem_ctrls1.rdQLenPdf::3                      0                       # What read queue length does an incoming req see
system.mem_ctrls1.rdQLenPdf::4                      0                       # What read queue length does an incoming req see
system.mem_ctrls1.rdQLenPdf::5                      0                       # What read queue length does an incoming req see
system.mem_ctrls1.rdQLenPdf::6                      0                       # What read queue length does an incoming req see
system.mem_ctrls1.rdQLenPdf::7                      0                       # What read queue length does an incoming req see
system.mem_ctrls1.rdQLenPdf::8                      0                       # What read queue length does an incoming req see
system.mem_ctrls1.rdQLenPdf::9                      0                       # What read queue length does an incoming req see
system.mem_ctrls1.rdQLenPdf::10                     0                       # What read queue length does an incoming req see
system.mem_ctrls1.rdQLenPdf::11                     0                       # What read queue length does an incoming req see
system.mem_ctrls1.rdQLenPdf::12                     0                       # What read queue length does an incoming req see
system.mem_ctrls1.rdQLenPdf::13                     0                       # What read queue length does an incoming req see
system.mem_ctrls1.rdQLenPdf::14                     0                       # What read queue length does an incoming req see
system.mem_ctrls1.rdQLenPdf::15                     0                       # What read queue length does an incoming req see
system.mem_ctrls1.rdQLenPdf::16                     0                       # What read queue length does an incoming req see
system.mem_ctrls1.rdQLenPdf::17                     0                       # What read queue length does an incoming req see
system.mem_ctrls1.rdQLenPdf::18                     0                       # What read queue length does an incoming req see
system.mem_ctrls1.rdQLenPdf::19                     0                       # What read queue length does an incoming req see
system.mem_ctrls1.rdQLenPdf::20                     0                       # What read queue length does an incoming req see
system.mem_ctrls1.rdQLenPdf::21                     0                       # What read queue length does an incoming req see
system.mem_ctrls1.rdQLenPdf::22                     0                       # What read queue length does an incoming req see
system.mem_ctrls1.rdQLenPdf::23                     0                       # What read queue length does an incoming req see
system.mem_ctrls1.rdQLenPdf::24                     0                       # What read queue length does an incoming req see
system.mem_ctrls1.rdQLenPdf::25                     0                       # What read queue length does an incoming req see
system.mem_ctrls1.rdQLenPdf::26                     0                       # What read queue length does an incoming req see
system.mem_ctrls1.rdQLenPdf::27                     0                       # What read queue length does an incoming req see
system.mem_ctrls1.rdQLenPdf::28                     0                       # What read queue length does an incoming req see
system.mem_ctrls1.rdQLenPdf::29                     0                       # What read queue length does an incoming req see
system.mem_ctrls1.rdQLenPdf::30                     0                       # What read queue length does an incoming req see
system.mem_ctrls1.rdQLenPdf::31                     0                       # What read queue length does an incoming req see
system.mem_ctrls1.wrQLenPdf::0                      0                       # What write queue length does an incoming req see
system.mem_ctrls1.wrQLenPdf::1                      0                       # What write queue length does an incoming req see
system.mem_ctrls1.wrQLenPdf::2                      0                       # What write queue length does an incoming req see
system.mem_ctrls1.wrQLenPdf::3                      0                       # What write queue length does an incoming req see
system.mem_ctrls1.wrQLenPdf::4                      0                       # What write queue length does an incoming req see
system.mem_ctrls1.wrQLenPdf::5                      0                       # What write queue length does an incoming req see
system.mem_ctrls1.wrQLenPdf::6                      0                       # What write queue length does an incoming req see
system.mem_ctrls1.wrQLenPdf::7                      0                       # What write queue length does an incoming req see
system.mem_ctrls1.wrQLenPdf::8                      0                       # What write queue length does an incoming req see
system.mem_ctrls1.wrQLenPdf::9                      0                       # What write queue length does an incoming req see
system.mem_ctrls1.wrQLenPdf::10                     0                       # What write queue length does an incoming req see
system.mem_ctrls1.wrQLenPdf::11                     0                       # What write queue length does an incoming req see
system.mem_ctrls1.wrQLenPdf::12                     0                       # What write queue length does an incoming req see
system.mem_ctrls1.wrQLenPdf::13                     0                       # What write queue length does an incoming req see
system.mem_ctrls1.wrQLenPdf::14                     0                       # What write queue length does an incoming req see
system.mem_ctrls1.wrQLenPdf::15                  8669                       # What write queue length does an incoming req see
system.mem_ctrls1.wrQLenPdf::16                  8805                       # What write queue length does an incoming req see
system.mem_ctrls1.wrQLenPdf::17                121563                       # What write queue length does an incoming req see
system.mem_ctrls1.wrQLenPdf::18                122946                       # What write queue length does an incoming req see
system.mem_ctrls1.wrQLenPdf::19                122996                       # What write queue length does an incoming req see
system.mem_ctrls1.wrQLenPdf::20                122947                       # What write queue length does an incoming req see
system.mem_ctrls1.wrQLenPdf::21                122920                       # What write queue length does an incoming req see
system.mem_ctrls1.wrQLenPdf::22                122917                       # What write queue length does an incoming req see
system.mem_ctrls1.wrQLenPdf::23                123011                       # What write queue length does an incoming req see
system.mem_ctrls1.wrQLenPdf::24                123023                       # What write queue length does an incoming req see
system.mem_ctrls1.wrQLenPdf::25                123150                       # What write queue length does an incoming req see
system.mem_ctrls1.wrQLenPdf::26                123172                       # What write queue length does an incoming req see
system.mem_ctrls1.wrQLenPdf::27                122897                       # What write queue length does an incoming req see
system.mem_ctrls1.wrQLenPdf::28                122856                       # What write queue length does an incoming req see
system.mem_ctrls1.wrQLenPdf::29                122852                       # What write queue length does an incoming req see
system.mem_ctrls1.wrQLenPdf::30                122845                       # What write queue length does an incoming req see
system.mem_ctrls1.wrQLenPdf::31                122844                       # What write queue length does an incoming req see
system.mem_ctrls1.wrQLenPdf::32                122844                       # What write queue length does an incoming req see
system.mem_ctrls1.wrQLenPdf::33                    31                       # What write queue length does an incoming req see
system.mem_ctrls1.wrQLenPdf::34                     1                       # What write queue length does an incoming req see
system.mem_ctrls1.wrQLenPdf::35                     0                       # What write queue length does an incoming req see
system.mem_ctrls1.wrQLenPdf::36                     0                       # What write queue length does an incoming req see
system.mem_ctrls1.wrQLenPdf::37                     0                       # What write queue length does an incoming req see
system.mem_ctrls1.wrQLenPdf::38                     0                       # What write queue length does an incoming req see
system.mem_ctrls1.wrQLenPdf::39                     0                       # What write queue length does an incoming req see
system.mem_ctrls1.wrQLenPdf::40                     0                       # What write queue length does an incoming req see
system.mem_ctrls1.wrQLenPdf::41                     0                       # What write queue length does an incoming req see
system.mem_ctrls1.wrQLenPdf::42                     0                       # What write queue length does an incoming req see
system.mem_ctrls1.wrQLenPdf::43                     0                       # What write queue length does an incoming req see
system.mem_ctrls1.wrQLenPdf::44                     0                       # What write queue length does an incoming req see
system.mem_ctrls1.wrQLenPdf::45                     0                       # What write queue length does an incoming req see
system.mem_ctrls1.wrQLenPdf::46                     0                       # What write queue length does an incoming req see
system.mem_ctrls1.wrQLenPdf::47                     0                       # What write queue length does an incoming req see
system.mem_ctrls1.wrQLenPdf::48                     0                       # What write queue length does an incoming req see
system.mem_ctrls1.wrQLenPdf::49                     0                       # What write queue length does an incoming req see
system.mem_ctrls1.wrQLenPdf::50                     0                       # What write queue length does an incoming req see
system.mem_ctrls1.wrQLenPdf::51                     0                       # What write queue length does an incoming req see
system.mem_ctrls1.wrQLenPdf::52                     0                       # What write queue length does an incoming req see
system.mem_ctrls1.wrQLenPdf::53                     0                       # What write queue length does an incoming req see
system.mem_ctrls1.wrQLenPdf::54                     0                       # What write queue length does an incoming req see
system.mem_ctrls1.wrQLenPdf::55                     0                       # What write queue length does an incoming req see
system.mem_ctrls1.wrQLenPdf::56                     0                       # What write queue length does an incoming req see
system.mem_ctrls1.wrQLenPdf::57                     0                       # What write queue length does an incoming req see
system.mem_ctrls1.wrQLenPdf::58                     0                       # What write queue length does an incoming req see
system.mem_ctrls1.wrQLenPdf::59                     0                       # What write queue length does an incoming req see
system.mem_ctrls1.wrQLenPdf::60                     0                       # What write queue length does an incoming req see
system.mem_ctrls1.wrQLenPdf::61                     0                       # What write queue length does an incoming req see
system.mem_ctrls1.wrQLenPdf::62                     0                       # What write queue length does an incoming req see
system.mem_ctrls1.wrQLenPdf::63                     0                       # What write queue length does an incoming req see
system.mem_ctrls1.bytesPerActivate::samples      3267584                       # Bytes accessed per row activation
system.mem_ctrls1.bytesPerActivate::mean    75.767549                       # Bytes accessed per row activation
system.mem_ctrls1.bytesPerActivate::gmean    71.295597                       # Bytes accessed per row activation
system.mem_ctrls1.bytesPerActivate::stdev    39.332853                       # Bytes accessed per row activation
system.mem_ctrls1.bytesPerActivate::0-127      2843707     87.03%     87.03% # Bytes accessed per row activation
system.mem_ctrls1.bytesPerActivate::128-255       389405     11.92%     98.95% # Bytes accessed per row activation
system.mem_ctrls1.bytesPerActivate::256-383        28216      0.86%     99.81% # Bytes accessed per row activation
system.mem_ctrls1.bytesPerActivate::384-511         3332      0.10%     99.91% # Bytes accessed per row activation
system.mem_ctrls1.bytesPerActivate::512-639         1148      0.04%     99.95% # Bytes accessed per row activation
system.mem_ctrls1.bytesPerActivate::640-767          634      0.02%     99.97% # Bytes accessed per row activation
system.mem_ctrls1.bytesPerActivate::768-895          289      0.01%     99.97% # Bytes accessed per row activation
system.mem_ctrls1.bytesPerActivate::896-1023          214      0.01%     99.98% # Bytes accessed per row activation
system.mem_ctrls1.bytesPerActivate::1024-1151          639      0.02%    100.00% # Bytes accessed per row activation
system.mem_ctrls1.bytesPerActivate::total      3267584                       # Bytes accessed per row activation
system.mem_ctrls1.rdPerTurnAround::samples       122844                       # Reads before turning the bus around for writes
system.mem_ctrls1.rdPerTurnAround::mean     15.345406                       # Reads before turning the bus around for writes
system.mem_ctrls1.rdPerTurnAround::stdev     2.680011                       # Reads before turning the bus around for writes
system.mem_ctrls1.rdPerTurnAround::0-3             46      0.04%      0.04% # Reads before turning the bus around for writes
system.mem_ctrls1.rdPerTurnAround::4-7            515      0.42%      0.46% # Reads before turning the bus around for writes
system.mem_ctrls1.rdPerTurnAround::8-11           981      0.80%      1.26% # Reads before turning the bus around for writes
system.mem_ctrls1.rdPerTurnAround::12-15        63012     51.29%     52.55% # Reads before turning the bus around for writes
system.mem_ctrls1.rdPerTurnAround::16-19        57004     46.40%     98.95% # Reads before turning the bus around for writes
system.mem_ctrls1.rdPerTurnAround::20-23          299      0.24%     99.20% # Reads before turning the bus around for writes
system.mem_ctrls1.rdPerTurnAround::24-27          189      0.15%     99.35% # Reads before turning the bus around for writes
system.mem_ctrls1.rdPerTurnAround::28-31          143      0.12%     99.47% # Reads before turning the bus around for writes
system.mem_ctrls1.rdPerTurnAround::32-35          140      0.11%     99.58% # Reads before turning the bus around for writes
system.mem_ctrls1.rdPerTurnAround::36-39          131      0.11%     99.69% # Reads before turning the bus around for writes
system.mem_ctrls1.rdPerTurnAround::40-43          111      0.09%     99.78% # Reads before turning the bus around for writes
system.mem_ctrls1.rdPerTurnAround::44-47           73      0.06%     99.84% # Reads before turning the bus around for writes
system.mem_ctrls1.rdPerTurnAround::48-51           72      0.06%     99.90% # Reads before turning the bus around for writes
system.mem_ctrls1.rdPerTurnAround::52-55           42      0.03%     99.93% # Reads before turning the bus around for writes
system.mem_ctrls1.rdPerTurnAround::56-59           31      0.03%     99.96% # Reads before turning the bus around for writes
system.mem_ctrls1.rdPerTurnAround::60-63           24      0.02%     99.97% # Reads before turning the bus around for writes
system.mem_ctrls1.rdPerTurnAround::64-67           12      0.01%     99.98% # Reads before turning the bus around for writes
system.mem_ctrls1.rdPerTurnAround::68-71            8      0.01%     99.99% # Reads before turning the bus around for writes
system.mem_ctrls1.rdPerTurnAround::72-75            3      0.00%     99.99% # Reads before turning the bus around for writes
system.mem_ctrls1.rdPerTurnAround::76-79            4      0.00%    100.00% # Reads before turning the bus around for writes
system.mem_ctrls1.rdPerTurnAround::80-83            1      0.00%    100.00% # Reads before turning the bus around for writes
system.mem_ctrls1.rdPerTurnAround::84-87            1      0.00%    100.00% # Reads before turning the bus around for writes
system.mem_ctrls1.rdPerTurnAround::92-95            1      0.00%    100.00% # Reads before turning the bus around for writes
system.mem_ctrls1.rdPerTurnAround::96-99            1      0.00%    100.00% # Reads before turning the bus around for writes
system.mem_ctrls1.rdPerTurnAround::total       122844                       # Reads before turning the bus around for writes
system.mem_ctrls1.wrPerTurnAround::samples       122844                       # Writes before turning the bus around for reads
system.mem_ctrls1.wrPerTurnAround::mean     16.144777                       # Writes before turning the bus around for reads
system.mem_ctrls1.wrPerTurnAround::gmean    16.136861                       # Writes before turning the bus around for reads
system.mem_ctrls1.wrPerTurnAround::stdev     0.523552                       # Writes before turning the bus around for reads
system.mem_ctrls1.wrPerTurnAround::16          114028     92.82%     92.82% # Writes before turning the bus around for reads
system.mem_ctrls1.wrPerTurnAround::17             100      0.08%     92.90% # Writes before turning the bus around for reads
system.mem_ctrls1.wrPerTurnAround::18            8472      6.90%     99.80% # Writes before turning the bus around for reads
system.mem_ctrls1.wrPerTurnAround::19             235      0.19%     99.99% # Writes before turning the bus around for reads
system.mem_ctrls1.wrPerTurnAround::20               9      0.01%    100.00% # Writes before turning the bus around for reads
system.mem_ctrls1.wrPerTurnAround::total       122844                       # Writes before turning the bus around for reads
system.mem_ctrls1.totQLat                 48983783962                       # Total ticks spent queuing
system.mem_ctrls1.totMemAccLat            84329277712                       # Total ticks spent from burst creation until serviced by the DRAM
system.mem_ctrls1.totBusLat                9425465000                       # Total ticks spent in databus transfers
system.mem_ctrls1.avgQLat                    25984.81                       # Average queueing delay per DRAM burst
system.mem_ctrls1.avgBusLat                   5000.00                       # Average bus latency per DRAM burst
system.mem_ctrls1.avgMemAccLat               44734.81                       # Average memory access latency per DRAM burst
system.mem_ctrls1.avgRdBW                      115.36                       # Average DRAM read bandwidth in MiByte/s
system.mem_ctrls1.avgWrBW                      121.37                       # Average achieved write bandwidth in MiByte/s
system.mem_ctrls1.avgRdBWSys                   126.07                       # Average system read bandwidth in MiByte/s
system.mem_ctrls1.avgWrBWSys                   125.23                       # Average system write bandwidth in MiByte/s
system.mem_ctrls1.peakBW                     12800.00                       # Theoretical peak bandwidth in MiByte/s
system.mem_ctrls1.busUtil                        1.85                       # Data bus utilization in percentage
system.mem_ctrls1.busUtilRead                    0.90                       # Data bus utilization in percentage for reads
system.mem_ctrls1.busUtilWrite                   0.95                       # Data bus utilization in percentage for writes
system.mem_ctrls1.avgRdQLen                      1.00                       # Average read queue length when enqueuing
system.mem_ctrls1.avgWrQLen                     25.52                       # Average write queue length when enqueuing
system.mem_ctrls1.readRowHits                  157707                       # Number of row buffer hits during reads
system.mem_ctrls1.writeRowHits                 443097                       # Number of row buffer hits during writes
system.mem_ctrls1.readRowHitRate                 8.37                       # Row buffer hit rate for reads
system.mem_ctrls1.writeRowHitRate               22.34                       # Row buffer hit rate for writes
system.mem_ctrls1.avgGap                    254680.55                       # Average gap between requests
system.mem_ctrls1.pageHitRate                   15.53                       # Row buffer hit rate, read and write combined
system.mem_ctrls1_0.actEnergy             12777118200                       # Energy for activate commands per rank (pJ)
system.mem_ctrls1_0.preEnergy              6971641875                       # Energy for precharge commands per rank (pJ)
system.mem_ctrls1_0.readEnergy             7773191400                       # Energy for read commands per rank (pJ)
system.mem_ctrls1_0.writeEnergy            6722818560                       # Energy for write commands per rank (pJ)
system.mem_ctrls1_0.refreshEnergy         68983112640                       # Energy for refresh commands per rank (pJ)
system.mem_ctrls1_0.actBackEnergy        632932413795                       # Energy for active background per rank (pJ)
system.mem_ctrls1_0.preBackEnergy         78491141250                       # Energy for precharge background per rank (pJ)
system.mem_ctrls1_0.totalEnergy          814651437720                       # Total energy per rank (pJ)
system.mem_ctrls1_0.averagePower           771.334558                       # Core power per rank (mW)
system.mem_ctrls1_0.memoryStateTime::IDLE 124046344750                       # Time in different power states
system.mem_ctrls1_0.memoryStateTime::REF  34922420000                       # Time in different power states
system.mem_ctrls1_0.memoryStateTime::PRE_PDN            0                       # Time in different power states
system.mem_ctrls1_0.memoryStateTime::ACT 886856594250                       # Time in different power states
system.mem_ctrls1_0.memoryStateTime::ACT_PDN            0                       # Time in different power states
system.mem_ctrls1_1.actEnergy             12037568760                       # Energy for activate commands per rank (pJ)
system.mem_ctrls1_1.preEnergy              6568117875                       # Energy for precharge commands per rank (pJ)
system.mem_ctrls1_1.readEnergy             7078656000                       # Energy for read commands per rank (pJ)
system.mem_ctrls1_1.writeEnergy            6254917200                       # Energy for write commands per rank (pJ)
system.mem_ctrls1_1.refreshEnergy         68983112640                       # Energy for refresh commands per rank (pJ)
system.mem_ctrls1_1.actBackEnergy        625594783275                       # Energy for active background per rank (pJ)
system.mem_ctrls1_1.preBackEnergy         84927659250                       # Energy for precharge background per rank (pJ)
system.mem_ctrls1_1.totalEnergy          811444815000                       # Total energy per rank (pJ)
system.mem_ctrls1_1.averagePower           768.298439                       # Core power per rank (mW)
system.mem_ctrls1_1.memoryStateTime::IDLE 135660956252                       # Time in different power states
system.mem_ctrls1_1.memoryStateTime::REF  34922420000                       # Time in different power states
system.mem_ctrls1_1.memoryStateTime::PRE_PDN            0                       # Time in different power states
system.mem_ctrls1_1.memoryStateTime::ACT 875239767998                       # Time in different power states
system.mem_ctrls1_1.memoryStateTime::ACT_PDN            0                       # Time in different power states
system.mem_ctrls2.bytes_read::ruby.dir_cntrl2    125568064                       # Number of bytes read from this memory
system.mem_ctrls2.bytes_read::total         125568064                       # Number of bytes read from this memory
system.mem_ctrls2.bytes_written::ruby.dir_cntrl2    124693120                       # Number of bytes written to this memory
system.mem_ctrls2.bytes_written::total      124693120                       # Number of bytes written to this memory
system.mem_ctrls2.num_reads::ruby.dir_cntrl2      1962001                       # Number of read requests responded to by this memory
system.mem_ctrls2.num_reads::total            1962001                       # Number of read requests responded to by this memory
system.mem_ctrls2.num_writes::ruby.dir_cntrl2      1948330                       # Number of write requests responded to by this memory
system.mem_ctrls2.num_writes::total           1948330                       # Number of write requests responded to by this memory
system.mem_ctrls2.bw_read::ruby.dir_cntrl2    120066691                       # Total read bandwidth from this memory (bytes/s)
system.mem_ctrls2.bw_read::total            120066691                       # Total read bandwidth from this memory (bytes/s)
system.mem_ctrls2.bw_write::ruby.dir_cntrl2    119230080                       # Write bandwidth from this memory (bytes/s)
system.mem_ctrls2.bw_write::total           119230080                       # Write bandwidth from this memory (bytes/s)
system.mem_ctrls2.bw_total::ruby.dir_cntrl2    239296772                       # Total bandwidth to/from this memory (bytes/s)
system.mem_ctrls2.bw_total::total           239296772                       # Total bandwidth to/from this memory (bytes/s)
system.mem_ctrls2.readReqs                    1962001                       # Number of read requests accepted
system.mem_ctrls2.writeReqs                   1948330                       # Number of write requests accepted
system.mem_ctrls2.readBursts                  1962001                       # Number of DRAM read bursts, including those serviced by the write queue
system.mem_ctrls2.writeBursts                 1948330                       # Number of DRAM write bursts, including those merged in the write queue
system.mem_ctrls2.bytesReadDRAM             118729344                       # Total number of bytes read from DRAM
system.mem_ctrls2.bytesReadWrQ                6838720                       # Total number of bytes read from write queue
system.mem_ctrls2.bytesWritten              123209344                       # Total number of bytes written to DRAM
system.mem_ctrls2.bytesReadSys              125568064                       # Total read bytes from the system interface side
system.mem_ctrls2.bytesWrittenSys           124693120                       # Total written bytes from the system interface side
system.mem_ctrls2.servicedByWrQ                106855                       # Number of DRAM read bursts serviced by the write queue
system.mem_ctrls2.mergedWrBursts                23185                       # Number of DRAM write bursts merged with an existing one
system.mem_ctrls2.neitherReadNorWriteReqs            0                       # Number of requests that are neither read nor write
system.mem_ctrls2.perBankRdBursts::0           101165                       # Per bank write bursts
system.mem_ctrls2.perBankRdBursts::1           185392                       # Per bank write bursts
system.mem_ctrls2.perBankRdBursts::2            96558                       # Per bank write bursts
system.mem_ctrls2.perBankRdBursts::3           134695                       # Per bank write bursts
system.mem_ctrls2.perBankRdBursts::4           137603                       # Per bank write bursts
system.mem_ctrls2.perBankRdBursts::5            85529                       # Per bank write bursts
system.mem_ctrls2.perBankRdBursts::6           150150                       # Per bank write bursts
system.mem_ctrls2.perBankRdBursts::7            78402                       # Per bank write bursts
system.mem_ctrls2.perBankRdBursts::8            97565                       # Per bank write bursts
system.mem_ctrls2.perBankRdBursts::9           143274                       # Per bank write bursts
system.mem_ctrls2.perBankRdBursts::10          133227                       # Per bank write bursts
system.mem_ctrls2.perBankRdBursts::11           94476                       # Per bank write bursts
system.mem_ctrls2.perBankRdBursts::12          111820                       # Per bank write bursts
system.mem_ctrls2.perBankRdBursts::13          101678                       # Per bank write bursts
system.mem_ctrls2.perBankRdBursts::14           93697                       # Per bank write bursts
system.mem_ctrls2.perBankRdBursts::15          109915                       # Per bank write bursts
system.mem_ctrls2.perBankWrBursts::0           101959                       # Per bank write bursts
system.mem_ctrls2.perBankWrBursts::1           193635                       # Per bank write bursts
system.mem_ctrls2.perBankWrBursts::2            95683                       # Per bank write bursts
system.mem_ctrls2.perBankWrBursts::3           138407                       # Per bank write bursts
system.mem_ctrls2.perBankWrBursts::4           137973                       # Per bank write bursts
system.mem_ctrls2.perBankWrBursts::5            85173                       # Per bank write bursts
system.mem_ctrls2.perBankWrBursts::6           155619                       # Per bank write bursts
system.mem_ctrls2.perBankWrBursts::7            80028                       # Per bank write bursts
system.mem_ctrls2.perBankWrBursts::8           114643                       # Per bank write bursts
system.mem_ctrls2.perBankWrBursts::9           148686                       # Per bank write bursts
system.mem_ctrls2.perBankWrBursts::10          156323                       # Per bank write bursts
system.mem_ctrls2.perBankWrBursts::11           93622                       # Per bank write bursts
system.mem_ctrls2.perBankWrBursts::12          114762                       # Per bank write bursts
system.mem_ctrls2.perBankWrBursts::13          101641                       # Per bank write bursts
system.mem_ctrls2.perBankWrBursts::14           94890                       # Per bank write bursts
system.mem_ctrls2.perBankWrBursts::15          112102                       # Per bank write bursts
system.mem_ctrls2.numRdRetry                        0                       # Number of times read queue was full causing retry
system.mem_ctrls2.numWrRetry                        0                       # Number of times write queue was full causing retry
system.mem_ctrls2.totGap                 1045819245000                       # Total gap between requests
system.mem_ctrls2.readPktSize::0                    0                       # Read request sizes (log2)
system.mem_ctrls2.readPktSize::1                    0                       # Read request sizes (log2)
system.mem_ctrls2.readPktSize::2                    0                       # Read request sizes (log2)
system.mem_ctrls2.readPktSize::3                    0                       # Read request sizes (log2)
system.mem_ctrls2.readPktSize::4                    0                       # Read request sizes (log2)
system.mem_ctrls2.readPktSize::5                    0                       # Read request sizes (log2)
system.mem_ctrls2.readPktSize::6              1962001                       # Read request sizes (log2)
system.mem_ctrls2.writePktSize::0                   0                       # Write request sizes (log2)
system.mem_ctrls2.writePktSize::1                   0                       # Write request sizes (log2)
system.mem_ctrls2.writePktSize::2                   0                       # Write request sizes (log2)
system.mem_ctrls2.writePktSize::3                   0                       # Write request sizes (log2)
system.mem_ctrls2.writePktSize::4                   0                       # Write request sizes (log2)
system.mem_ctrls2.writePktSize::5                   0                       # Write request sizes (log2)
system.mem_ctrls2.writePktSize::6             1948330                       # Write request sizes (log2)
system.mem_ctrls2.rdQLenPdf::0                1849792                       # What read queue length does an incoming req see
system.mem_ctrls2.rdQLenPdf::1                   5301                       # What read queue length does an incoming req see
system.mem_ctrls2.rdQLenPdf::2                     50                       # What read queue length does an incoming req see
system.mem_ctrls2.rdQLenPdf::3                      3                       # What read queue length does an incoming req see
system.mem_ctrls2.rdQLenPdf::4                      0                       # What read queue length does an incoming req see
system.mem_ctrls2.rdQLenPdf::5                      0                       # What read queue length does an incoming req see
system.mem_ctrls2.rdQLenPdf::6                      0                       # What read queue length does an incoming req see
system.mem_ctrls2.rdQLenPdf::7                      0                       # What read queue length does an incoming req see
system.mem_ctrls2.rdQLenPdf::8                      0                       # What read queue length does an incoming req see
system.mem_ctrls2.rdQLenPdf::9                      0                       # What read queue length does an incoming req see
system.mem_ctrls2.rdQLenPdf::10                     0                       # What read queue length does an incoming req see
system.mem_ctrls2.rdQLenPdf::11                     0                       # What read queue length does an incoming req see
system.mem_ctrls2.rdQLenPdf::12                     0                       # What read queue length does an incoming req see
system.mem_ctrls2.rdQLenPdf::13                     0                       # What read queue length does an incoming req see
system.mem_ctrls2.rdQLenPdf::14                     0                       # What read queue length does an incoming req see
system.mem_ctrls2.rdQLenPdf::15                     0                       # What read queue length does an incoming req see
system.mem_ctrls2.rdQLenPdf::16                     0                       # What read queue length does an incoming req see
system.mem_ctrls2.rdQLenPdf::17                     0                       # What read queue length does an incoming req see
system.mem_ctrls2.rdQLenPdf::18                     0                       # What read queue length does an incoming req see
system.mem_ctrls2.rdQLenPdf::19                     0                       # What read queue length does an incoming req see
system.mem_ctrls2.rdQLenPdf::20                     0                       # What read queue length does an incoming req see
system.mem_ctrls2.rdQLenPdf::21                     0                       # What read queue length does an incoming req see
system.mem_ctrls2.rdQLenPdf::22                     0                       # What read queue length does an incoming req see
system.mem_ctrls2.rdQLenPdf::23                     0                       # What read queue length does an incoming req see
system.mem_ctrls2.rdQLenPdf::24                     0                       # What read queue length does an incoming req see
system.mem_ctrls2.rdQLenPdf::25                     0                       # What read queue length does an incoming req see
system.mem_ctrls2.rdQLenPdf::26                     0                       # What read queue length does an incoming req see
system.mem_ctrls2.rdQLenPdf::27                     0                       # What read queue length does an incoming req see
system.mem_ctrls2.rdQLenPdf::28                     0                       # What read queue length does an incoming req see
system.mem_ctrls2.rdQLenPdf::29                     0                       # What read queue length does an incoming req see
system.mem_ctrls2.rdQLenPdf::30                     0                       # What read queue length does an incoming req see
system.mem_ctrls2.rdQLenPdf::31                     0                       # What read queue length does an incoming req see
system.mem_ctrls2.wrQLenPdf::0                      0                       # What write queue length does an incoming req see
system.mem_ctrls2.wrQLenPdf::1                      0                       # What write queue length does an incoming req see
system.mem_ctrls2.wrQLenPdf::2                      0                       # What write queue length does an incoming req see
system.mem_ctrls2.wrQLenPdf::3                      0                       # What write queue length does an incoming req see
system.mem_ctrls2.wrQLenPdf::4                      0                       # What write queue length does an incoming req see
system.mem_ctrls2.wrQLenPdf::5                      0                       # What write queue length does an incoming req see
system.mem_ctrls2.wrQLenPdf::6                      0                       # What write queue length does an incoming req see
[...]
system.ruby.RMW_Read.L1Cache.miss_type_mach_latency_hist_seqr::max_bucket           79                      
system.ruby.RMW_Read.L1Cache.miss_type_mach_latency_hist_seqr::samples          824                      
system.ruby.RMW_Read.L1Cache.miss_type_mach_latency_hist_seqr::mean    46.401699                      
system.ruby.RMW_Read.L1Cache.miss_type_mach_latency_hist_seqr::gmean    46.362500                      
system.ruby.RMW_Read.L1Cache.miss_type_mach_latency_hist_seqr::stdev     1.925728                      
system.ruby.RMW_Read.L1Cache.miss_type_mach_latency_hist_seqr |           0      0.00%      0.00% |           0      0.00%      0.00% |           0      0.00%      0.00% |           0      0.00%      0.00% |           0      0.00%      0.00% |         537     65.17%     65.17% |         287     34.83%    100.00% |           0      0.00%    100.00% |           0      0.00%    100.00% |           0      0.00%    100.00%
system.ruby.RMW_Read.L1Cache.miss_type_mach_latency_hist_seqr::total          824                      
system.ruby.RMW_Read.Directory.miss_type_mach_latency_hist_seqr::bucket_size          128                      
system.ruby.RMW_Read.Directory.miss_type_mach_latency_hist_seqr::max_bucket         1279                      
system.ruby.RMW_Read.Directory.miss_type_mach_latency_hist_seqr::samples        14662                      
system.ruby.RMW_Read.Directory.miss_type_mach_latency_hist_seqr::mean   132.078161                      
system.ruby.RMW_Read.Directory.miss_type_mach_latency_hist_seqr::gmean   116.199769                      
system.ruby.RMW_Read.Directory.miss_type_mach_latency_hist_seqr::stdev    78.462188                      
system.ruby.RMW_Read.Directory.miss_type_mach_latency_hist_seqr |       10503     71.63%     71.63% |        3241     22.10%     93.74% |         639      4.36%     98.10% |         144      0.98%     99.08% |          96      0.65%     99.73% |          34      0.23%     99.97% |           2      0.01%     99.98% |           1      0.01%     99.99% |           2      0.01%    100.00% |           0      0.00%    100.00%
system.ruby.RMW_Read.Directory.miss_type_mach_latency_hist_seqr::total        14662                      
system.ruby.Locked_RMW_Read.L1Cache.miss_type_mach_latency_hist_seqr::bucket_size            8                      
system.ruby.Locked_RMW_Read.L1Cache.miss_type_mach_latency_hist_seqr::max_bucket           79                      
system.ruby.Locked_RMW_Read.L1Cache.miss_type_mach_latency_hist_seqr::samples         2978                      
system.ruby.Locked_RMW_Read.L1Cache.miss_type_mach_latency_hist_seqr::mean    46.347213                      
system.ruby.Locked_RMW_Read.L1Cache.miss_type_mach_latency_hist_seqr::gmean    46.308826                      
system.ruby.Locked_RMW_Read.L1Cache.miss_type_mach_latency_hist_seqr::stdev     1.905297                      
system.ruby.Locked_RMW_Read.L1Cache.miss_type_mach_latency_hist_seqr |           0      0.00%      0.00% |           0      0.00%      0.00% |           0      0.00%      0.00% |           0      0.00%      0.00% |           0      0.00%      0.00% |        1986     66.69%     66.69% |         992     33.31%    100.00% |           0      0.00%    100.00% |           0      0.00%    100.00% |           0      0.00%    100.00%
system.ruby.Locked_RMW_Read.L1Cache.miss_type_mach_latency_hist_seqr::total         2978                      
system.ruby.Locked_RMW_Read.Directory.miss_type_mach_latency_hist_seqr::bucket_size          128                      
system.ruby.Locked_RMW_Read.Directory.miss_type_mach_latency_hist_seqr::max_bucket         1279                      
system.ruby.Locked_RMW_Read.Directory.miss_type_mach_latency_hist_seqr::samples      5921613                      
system.ruby.Locked_RMW_Read.Directory.miss_type_mach_latency_hist_seqr::mean   153.090409                      
system.ruby.Locked_RMW_Read.Directory.miss_type_mach_latency_hist_seqr::gmean   143.687282                      
system.ruby.Locked_RMW_Read.Directory.miss_type_mach_latency_hist_seqr::stdev    72.980493                      
system.ruby.Locked_RMW_Read.Directory.miss_type_mach_latency_hist_seqr |     3566574     60.23%     60.23% |     1913919     32.32%     92.55% |      316268      5.34%     97.89% |       63798      1.08%     98.97% |       44713      0.76%     99.72% |       13210      0.22%     99.95% |         817      0.01%     99.96% |        2220      0.04%    100.00% |          94      0.00%    100.00% |           0      0.00%    100.00%
system.ruby.Locked_RMW_Read.Directory.miss_type_mach_latency_hist_seqr::total      5921613                      
system.ruby.Directory_Controller.GETX    |     3523524     24.76%     24.76% |     3612104     25.39%     50.15% |     3540402     24.88%     75.04% |     3551813     24.96%    100.00%
system.ruby.Directory_Controller.GETX::total     14227843                      
system.ruby.Directory_Controller.PUTX    |     3434571     24.80%     24.80% |     3519497     25.41%     50.21% |     3442400     24.85%     75.06% |     3454824     24.94%    100.00%
system.ruby.Directory_Controller.PUTX::total     13851292                      
system.ruby.Directory_Controller.PUTX_NotOwner |           0      0.00%      0.00% |           2    100.00%    100.00% |           0      0.00%    100.00% |           0      0.00%    100.00%
system.ruby.Directory_Controller.PUTX_NotOwner::total            2                      
system.ruby.Directory_Controller.DMA_READ |       14436     25.24%     25.24% |       14321     25.04%     50.27% |       14247     24.91%     75.18% |       14199     24.82%    100.00%
system.ruby.Directory_Controller.DMA_READ::total        57203                      
system.ruby.Directory_Controller.DMA_WRITE |         624     25.00%     25.00% |         624     25.00%     50.00% |         624     25.00%     75.00% |         624     25.00%    100.00%
system.ruby.Directory_Controller.DMA_WRITE::total         2496                      
system.ruby.Directory_Controller.Memory_Data |     3449001     24.80%     24.80% |     3533846     25.41%     50.21% |     3456667     24.85%     75.06% |     3469071     24.94%    100.00%
system.ruby.Directory_Controller.Memory_Data::total     13908585                      
system.ruby.Directory_Controller.Memory_Ack |     3435195     24.80%     24.80% |     3520120     25.41%     50.21% |     3443024     24.85%     75.06% |     3455447     24.94%    100.00%
system.ruby.Directory_Controller.Memory_Ack::total     13853786                      
system.ruby.Directory_Controller.I.GETX  |     3434631     24.80%     24.80% |     3519529     25.41%     50.21% |     3442429     24.85%     75.06% |     3454874     24.94%    100.00%
system.ruby.Directory_Controller.I.GETX::total     13851463                      
system.ruby.Directory_Controller.I.DMA_READ |       14370     25.16%     25.16% |       14317     25.06%     50.22% |       14238     24.93%     75.15% |       14197     24.85%    100.00%
system.ruby.Directory_Controller.I.DMA_READ::total        57122                      
system.ruby.Directory_Controller.I.DMA_WRITE |         624     25.02%     25.02% |         623     24.98%     50.00% |         624     25.02%     75.02% |         623     24.98%    100.00%
system.ruby.Directory_Controller.I.DMA_WRITE::total         2494                      
system.ruby.Directory_Controller.M.GETX  |       88845     23.63%     23.63% |       92477     24.59%     48.22% |       97906     26.03%     74.25% |       96832     25.75%    100.00%
system.ruby.Directory_Controller.M.GETX::total       376060                      
system.ruby.Directory_Controller.M.PUTX  |     3434505     24.80%     24.80% |     3519492     25.41%     50.20% |     3442391     24.85%     75.06% |     3454821     24.94%    100.00%
system.ruby.Directory_Controller.M.PUTX::total     13851209                      
system.ruby.Directory_Controller.M.PUTX_NotOwner |           0      0.00%      0.00% |           2    100.00%    100.00% |           0      0.00%    100.00% |           0      0.00%    100.00%
system.ruby.Directory_Controller.M.PUTX_NotOwner::total            2                      
system.ruby.Directory_Controller.M.DMA_READ |          66     81.48%     81.48% |           4      4.94%     86.42% |           9     11.11%     97.53% |           2      2.47%    100.00%
system.ruby.Directory_Controller.M.DMA_READ::total           81                      
system.ruby.Directory_Controller.M.DMA_WRITE |           0      0.00%      0.00% |           1     50.00%     50.00% |           0      0.00%     50.00% |           1     50.00%    100.00%
system.ruby.Directory_Controller.M.DMA_WRITE::total            2                      
system.ruby.Directory_Controller.M_DRD.PUTX |          66     81.48%     81.48% |           4      4.94%     86.42% |           9     11.11%     97.53% |           2      2.47%    100.00%
system.ruby.Directory_Controller.M_DRD.PUTX::total           81                      
system.ruby.Directory_Controller.M_DWR.PUTX |           0      0.00%      0.00% |           1     50.00%     50.00% |           0      0.00%     50.00% |           1     50.00%    100.00%
system.ruby.Directory_Controller.M_DWR.PUTX::total            2                      
system.ruby.Directory_Controller.M_DWRI.Memory_Ack |           0      0.00%      0.00% |           1     50.00%     50.00% |           0      0.00%     50.00% |           1     50.00%    100.00%
system.ruby.Directory_Controller.M_DWRI.Memory_Ack::total            2                      
system.ruby.Directory_Controller.M_DRDI.Memory_Ack |          66     81.48%     81.48% |           4      4.94%     86.42% |           9     11.11%     97.53% |           2      2.47%    100.00%
system.ruby.Directory_Controller.M_DRDI.Memory_Ack::total           81                      
system.ruby.Directory_Controller.IM.GETX |          48     15.24%     15.24% |          97     30.79%     46.03% |          63     20.00%     66.03% |         107     33.97%    100.00%
system.ruby.Directory_Controller.IM.GETX::total          315                      
system.ruby.Directory_Controller.IM.Memory_Data |     3434631     24.80%     24.80% |     3519529     25.41%     50.21% |     3442429     24.85%     75.06% |     3454874     24.94%    100.00%
system.ruby.Directory_Controller.IM.Memory_Data::total     13851463                      
system.ruby.Directory_Controller.MI.GETX |           0      0.00%      0.00% |           1     20.00%     20.00% |           4     80.00%    100.00% |           0      0.00%    100.00%
system.ruby.Directory_Controller.MI.GETX::total            5                      
system.ruby.Directory_Controller.MI.Memory_Ack |     3434505     24.80%     24.80% |     3519492     25.41%     50.20% |     3442391     24.85%     75.06% |     3454821     24.94%    100.00%
system.ruby.Directory_Controller.MI.Memory_Ack::total     13851209                      
system.ruby.Directory_Controller.ID.Memory_Data |       14370     25.16%     25.16% |       14317     25.06%     50.22% |       14238     24.93%     75.15% |       14197     24.85%    100.00%
system.ruby.Directory_Controller.ID.Memory_Data::total        57122                      
system.ruby.Directory_Controller.ID_W.Memory_Ack |         624     25.02%     25.02% |         623     24.98%     50.00% |         624     25.02%     75.02% |         623     24.98%    100.00%
system.ruby.Directory_Controller.ID_W.Memory_Ack::total         2494                      
system.ruby.DMA_Controller.ReadRequest   |       57203    100.00%    100.00% |           0      0.00%    100.00%
system.ruby.DMA_Controller.ReadRequest::total        57203                      
system.ruby.DMA_Controller.WriteRequest  |        2496    100.00%    100.00% |           0      0.00%    100.00%
system.ruby.DMA_Controller.WriteRequest::total         2496                      
system.ruby.DMA_Controller.Data          |       57203    100.00%    100.00% |           0      0.00%    100.00%
system.ruby.DMA_Controller.Data::total          57203                      
system.ruby.DMA_Controller.Ack           |        2496    100.00%    100.00% |           0      0.00%    100.00%
system.ruby.DMA_Controller.Ack::total            2496                      
system.ruby.DMA_Controller.READY.ReadRequest |       57203    100.00%    100.00% |           0      0.00%    100.00%
system.ruby.DMA_Controller.READY.ReadRequest::total        57203                      
system.ruby.DMA_Controller.READY.WriteRequest |        2496    100.00%    100.00% |           0      0.00%    100.00%
system.ruby.DMA_Controller.READY.WriteRequest::total         2496                      
system.ruby.DMA_Controller.BUSY_RD.Data  |       57203    100.00%    100.00% |           0      0.00%    100.00%
system.ruby.DMA_Controller.BUSY_RD.Data::total        57203                      
system.ruby.DMA_Controller.BUSY_WR.Ack   |        2496    100.00%    100.00% |           0      0.00%    100.00%
system.ruby.DMA_Controller.BUSY_WR.Ack::total         2496                      
system.ruby.L1Cache_Controller.Load      |      896088      0.70%      0.70% |    37709475     29.52%     30.22% |    88247974     69.07%     99.29% |      907893      0.71%    100.00%
system.ruby.L1Cache_Controller.Load::total    127761430                      
system.ruby.L1Cache_Controller.Ifetch    |     4615137      0.90%      0.90% |   138956124     27.05%     27.94% |   365257915     71.09%     99.03% |     4960860      0.97%    100.00%
system.ruby.L1Cache_Controller.Ifetch::total    513790036                      
system.ruby.L1Cache_Controller.Store     |      669448      1.58%      1.58% |    16393353     38.67%     40.25% |    24618056     58.07%     98.31% |      715785      1.69%    100.00%
system.ruby.L1Cache_Controller.Store::total     42396642                      
system.ruby.L1Cache_Controller.Data      |      178982      1.26%      1.26% |     5938860     41.74%     43.00% |     7901500     55.54%     98.54% |      208181      1.46%    100.00%
system.ruby.L1Cache_Controller.Data::total     14227523                      
system.ruby.L1Cache_Controller.Fwd_GETX  |      112464     29.91%     29.91% |       80819     21.49%     51.40% |       62701     16.67%     68.07% |      120076     31.93%    100.00%
system.ruby.L1Cache_Controller.Fwd_GETX::total       376060                      
system.ruby.L1Cache_Controller.Inv       |          32     19.28%     19.28% |          70     42.17%     61.45% |          32     19.28%     80.72% |          32     19.28%    100.00%
system.ruby.L1Cache_Controller.Inv::total          166                      
system.ruby.L1Cache_Controller.Replacement |       85265      0.61%      0.61% |     5872490     42.21%     42.82% |     7850912     56.43%     99.24% |      105084      0.76%    100.00%
system.ruby.L1Cache_Controller.Replacement::total     13913751                      
system.ruby.L1Cache_Controller.Writeback_Ack |       66788      0.48%      0.48% |     5858470     42.30%     42.78% |     7838372     56.59%     99.37% |       87662      0.63%    100.00%
system.ruby.L1Cache_Controller.Writeback_Ack::total     13851292                      
system.ruby.L1Cache_Controller.Writeback_Nack |           0      0.00%      0.00% |           0      0.00%      0.00% |           1     50.00%     50.00% |           1     50.00%    100.00%
system.ruby.L1Cache_Controller.Writeback_Nack::total            2                      
system.ruby.L1Cache_Controller.I.Load    |       48048      0.50%      0.50% |     4405936     45.39%     45.89% |     5189769     53.47%     99.36% |       62541      0.64%    100.00%
system.ruby.L1Cache_Controller.I.Load::total      9706294                      
system.ruby.L1Cache_Controller.I.Ifetch  |      119105     14.85%     14.85% |      184363     22.98%     37.83% |      370534     46.19%     84.01% |      128267     15.99%    100.00%
system.ruby.L1Cache_Controller.I.Ifetch::total       802269                      
system.ruby.L1Cache_Controller.I.Store   |       11829      0.32%      0.32% |     1348561     36.26%     36.58% |     2341197     62.95%     99.53% |       17373      0.47%    100.00%
system.ruby.L1Cache_Controller.I.Store::total      3718960                      
system.ruby.L1Cache_Controller.I.Replacement |       18493     29.57%     29.57% |       14055     22.47%     52.04% |       12555     20.08%     72.12% |       17437     27.88%    100.00%
system.ruby.L1Cache_Controller.I.Replacement::total        62540                      
system.ruby.L1Cache_Controller.II.Writeback_Nack |           0      0.00%      0.00% |           0      0.00%      0.00% |           1     50.00%     50.00% |           1     50.00%    100.00%
system.ruby.L1Cache_Controller.II.Writeback_Nack::total            2                      
system.ruby.L1Cache_Controller.M.Load    |      848040      0.72%      0.72% |    33303539     28.21%     28.93% |    83058205     70.36%     99.28% |      845352      0.72%    100.00%
system.ruby.L1Cache_Controller.M.Load::total    118055136                      
system.ruby.L1Cache_Controller.M.Ifetch  |     4496032      0.88%      0.88% |   138771761     27.05%     27.93% |   364887381     71.13%     99.06% |     4832593      0.94%    100.00%
system.ruby.L1Cache_Controller.M.Ifetch::total    512987767                      
system.ruby.L1Cache_Controller.M.Store   |      657619      1.70%      1.70% |    15044792     38.90%     40.60% |    22276859     57.60%     98.19% |      698412      1.81%    100.00%
system.ruby.L1Cache_Controller.M.Store::total     38677682                      
system.ruby.L1Cache_Controller.M.Fwd_GETX |      112464     29.91%     29.91% |       80819     21.49%     51.40% |       62700     16.67%     68.07% |      120075     31.93%    100.00%
system.ruby.L1Cache_Controller.M.Fwd_GETX::total       376058                      
system.ruby.L1Cache_Controller.M.Inv     |          16     19.28%     19.28% |          35     42.17%     61.45% |          16     19.28%     80.72% |          16     19.28%    100.00%
system.ruby.L1Cache_Controller.M.Inv::total           83                      
system.ruby.L1Cache_Controller.M.Replacement |       66772      0.48%      0.48% |     5858435     42.30%     42.78% |     7838357     56.59%     99.37% |       87647      0.63%    100.00%
system.ruby.L1Cache_Controller.M.Replacement::total     13851211                      
system.ruby.L1Cache_Controller.MI.Fwd_GETX |           0      0.00%      0.00% |           0      0.00%      0.00% |           1     50.00%     50.00% |           1     50.00%    100.00%
system.ruby.L1Cache_Controller.MI.Fwd_GETX::total            2                      
system.ruby.L1Cache_Controller.MI.Inv    |          16     19.28%     19.28% |          35     42.17%     61.45% |          16     19.28%     80.72% |          16     19.28%    100.00%
system.ruby.L1Cache_Controller.MI.Inv::total           83                      
system.ruby.L1Cache_Controller.MI.Writeback_Ack |       66788      0.48%      0.48% |     5858470     42.30%     42.78% |     7838372     56.59%     99.37% |       87662      0.63%    100.00%
system.ruby.L1Cache_Controller.MI.Writeback_Ack::total     13851292                      
system.ruby.L1Cache_Controller.IS.Data   |      167153      1.59%      1.59% |     4590299     43.68%     45.27% |     5560303     52.91%     98.18% |      190808      1.82%    100.00%
system.ruby.L1Cache_Controller.IS.Data::total     10508563                      
system.ruby.L1Cache_Controller.IM.Data   |       11829      0.32%      0.32% |     1348561     36.26%     36.58% |     2341197     62.95%     99.53% |       17373      0.47%    100.00%
system.ruby.L1Cache_Controller.IM.Data::total      3718960                      

---------- End Simulation Statistics   ----------
