
---------- Begin Simulation Statistics ----------
sim_seconds                                  3.606138                       # Number of seconds simulated
sim_ticks                                3606138494000                       # Number of ticks simulated
final_tick                               56047063811001                       # Number of ticks from beginning of simulation (restored from checkpoints and never reset)
sim_freq                                 1000000000000                       # Frequency of simulated ticks
host_inst_rate                                 147419                       # Simulator instruction rate (inst/s)
host_op_rate                                   251067                       # Simulator op (including micro ops) rate (op/s)
host_tick_rate                              263052399                       # Simulator tick rate (ticks/s)
host_mem_usage                                1894392                       # Number of bytes of host memory used
host_seconds                                 13708.82                       # Real time elapsed on the host
sim_insts                                  2020937314                       # Number of instructions simulated
sim_ops                                    3441832460                       # Number of ops (including micro ops) simulated
system.voltage_domain.voltage                       1                       # Voltage in Volts
system.clk_domain.clock                          1000                       # Clock period in ticks
system.mem_ctrls.bytes_read::ruby.dir_cntrl0      1516352                       # Number of bytes read from this memory
system.mem_ctrls.bytes_read::total            1516352                       # Number of bytes read from this memory
system.mem_ctrls.bytes_written::ruby.dir_cntrl0       645824                       # Number of bytes written to this memory
system.mem_ctrls.bytes_written::total          645824                       # Number of bytes written to this memory
system.mem_ctrls.num_reads::ruby.dir_cntrl0        23693                       # Number of read requests responded to by this memory
system.mem_ctrls.num_reads::total               23693                       # Number of read requests responded to by this memory
system.mem_ctrls.num_writes::ruby.dir_cntrl0        10091                       # Number of write requests responded to by this memory
system.mem_ctrls.num_writes::total              10091                       # Number of write requests responded to by this memory
system.mem_ctrls.bw_read::ruby.dir_cntrl0       420492                       # Total read bandwidth from this memory (bytes/s)
system.mem_ctrls.bw_read::total                420492                       # Total read bandwidth from this memory (bytes/s)
system.mem_ctrls.bw_write::ruby.dir_cntrl0       179090                       # Write bandwidth from this memory (bytes/s)
system.mem_ctrls.bw_write::total               179090                       # Write bandwidth from this memory (bytes/s)
system.mem_ctrls.bw_total::ruby.dir_cntrl0       599582                       # Total bandwidth to/from this memory (bytes/s)
system.mem_ctrls.bw_total::total               599582                       # Total bandwidth to/from this memory (bytes/s)
system.mem_ctrls.readReqs                       23693                       # Number of read requests accepted
system.mem_ctrls.writeReqs                      10091                       # Number of write requests accepted
system.mem_ctrls.readBursts                     23693                       # Number of DRAM read bursts, including those serviced by the write queue
system.mem_ctrls.writeBursts                    10091                       # Number of DRAM write bursts, including those merged in the write queue
system.mem_ctrls.bytesReadDRAM                1500800                       # Total number of bytes read from DRAM
system.mem_ctrls.bytesReadWrQ                   15552                       # Total number of bytes read from write queue
system.mem_ctrls.bytesWritten                  639040                       # Total number of bytes written to DRAM
system.mem_ctrls.bytesReadSys                 1516352                       # Total read bytes from the system interface side
system.mem_ctrls.bytesWrittenSys               645824                       # Total written bytes from the system interface side
system.mem_ctrls.servicedByWrQ                    243                       # Number of DRAM read bursts serviced by the write queue
system.mem_ctrls.mergedWrBursts                    99                       # Number of DRAM write bursts merged with an existing one
system.mem_ctrls.neitherReadNorWriteReqs            0                       # Number of requests that are neither read nor write
system.mem_ctrls.perBankRdBursts::0              1843                       # Per bank write bursts
system.mem_ctrls.perBankRdBursts::1              1345                       # Per bank write bursts
system.mem_ctrls.perBankRdBursts::2              1169                       # Per bank write bursts
system.mem_ctrls.perBankRdBursts::3              1118                       # Per bank write bursts
system.mem_ctrls.perBankRdBursts::4              1357                       # Per bank write bursts
system.mem_ctrls.perBankRdBursts::5              1559                       # Per bank write bursts
system.mem_ctrls.perBankRdBursts::6              1938                       # Per bank write bursts
system.mem_ctrls.perBankRdBursts::7              2206                       # Per bank write bursts
system.mem_ctrls.perBankRdBursts::8              1253                       # Per bank write bursts
system.mem_ctrls.perBankRdBursts::9              1046                       # Per bank write bursts
system.mem_ctrls.perBankRdBursts::10             1312                       # Per bank write bursts
system.mem_ctrls.perBankRdBursts::11             1185                       # Per bank write bursts
system.mem_ctrls.perBankRdBursts::12             1250                       # Per bank write bursts
system.mem_ctrls.perBankRdBursts::13             1480                       # Per bank write bursts
system.mem_ctrls.perBankRdBursts::14             2019                       # Per bank write bursts
system.mem_ctrls.perBankRdBursts::15             1370                       # Per bank write bursts
system.mem_ctrls.perBankWrBursts::0               920                       # Per bank write bursts
system.mem_ctrls.perBankWrBursts::1               623                       # Per bank write bursts
system.mem_ctrls.perBankWrBursts::2               625                       # Per bank write bursts
system.mem_ctrls.perBankWrBursts::3               541                       # Per bank write bursts
system.mem_ctrls.perBankWrBursts::4               806                       # Per bank write bursts
system.mem_ctrls.perBankWrBursts::5               668                       # Per bank write bursts
system.mem_ctrls.perBankWrBursts::6               885                       # Per bank write bursts
system.mem_ctrls.perBankWrBursts::7               987                       # Per bank write bursts
system.mem_ctrls.perBankWrBursts::8               492                       # Per bank write bursts
system.mem_ctrls.perBankWrBursts::9               198                       # Per bank write bursts
system.mem_ctrls.perBankWrBursts::10              463                       # Per bank write bursts
system.mem_ctrls.perBankWrBursts::11              184                       # Per bank write bursts
system.mem_ctrls.perBankWrBursts::12              301                       # Per bank write bursts
system.mem_ctrls.perBankWrBursts::13              649                       # Per bank write bursts
system.mem_ctrls.perBankWrBursts::14             1079                       # Per bank write bursts
system.mem_ctrls.perBankWrBursts::15              564                       # Per bank write bursts
system.mem_ctrls.numRdRetry                         0                       # Number of times read queue was full causing retry
system.mem_ctrls.numWrRetry                         0                       # Number of times write queue was full causing retry
system.mem_ctrls.totGap                  3606138621000                       # Total gap between requests
system.mem_ctrls.readPktSize::0                     0                       # Read request sizes (log2)
system.mem_ctrls.readPktSize::1                     0                       # Read request sizes (log2)
system.mem_ctrls.readPktSize::2                     0                       # Read request sizes (log2)
system.mem_ctrls.readPktSize::3                     0                       # Read request sizes (log2)
system.mem_ctrls.readPktSize::4                     0                       # Read request sizes (log2)
system.mem_ctrls.readPktSize::5                     0                       # Read request sizes (log2)
system.mem_ctrls.readPktSize::6                 23693                       # Read request sizes (log2)
system.mem_ctrls.writePktSize::0                    0                       # Write request sizes (log2)
system.mem_ctrls.writePktSize::1                    0                       # Write request sizes (log2)
system.mem_ctrls.writePktSize::2                    0                       # Write request sizes (log2)
system.mem_ctrls.writePktSize::3                    0                       # Write request sizes (log2)
system.mem_ctrls.writePktSize::4                    0                       # Write request sizes (log2)
system.mem_ctrls.writePktSize::5                    0                       # Write request sizes (log2)
system.mem_ctrls.writePktSize::6                10091                       # Write request sizes (log2)
system.mem_ctrls.rdQLenPdf::0                   23236                       # What read queue length does an incoming req see
system.mem_ctrls.rdQLenPdf::1                     209                       # What read queue length does an incoming req see
system.mem_ctrls.rdQLenPdf::2                       5                       # What read queue length does an incoming req see
system.mem_ctrls.rdQLenPdf::3                       0                       # What read queue length does an incoming req see
system.mem_ctrls.rdQLenPdf::4                       0                       # What read queue length does an incoming req see
system.mem_ctrls.rdQLenPdf::5                       0                       # What read queue length does an incoming req see
system.mem_ctrls.rdQLenPdf::6                       0                       # What read queue length does an incoming req see
system.mem_ctrls.rdQLenPdf::7                       0                       # What read queue length does an incoming req see
system.mem_ctrls.rdQLenPdf::8                       0                       # What read queue length does an incoming req see
system.mem_ctrls.rdQLenPdf::9                       0                       # What read queue length does an incoming req see
system.mem_ctrls.rdQLenPdf::10                      0                       # What read queue length does an incoming req see
system.mem_ctrls.rdQLenPdf::11                      0                       # What read queue length does an incoming req see
system.mem_ctrls.rdQLenPdf::12                      0                       # What read queue length does an incoming req see
system.mem_ctrls.rdQLenPdf::13                      0                       # What read queue length does an incoming req see
system.mem_ctrls.rdQLenPdf::14                      0                       # What read queue length does an incoming req see
system.mem_ctrls.rdQLenPdf::15                      0                       # What read queue length does an incoming req see
system.mem_ctrls.rdQLenPdf::16                      0                       # What read queue length does an incoming req see
system.mem_ctrls.rdQLenPdf::17                      0                       # What read queue length does an incoming req see
system.mem_ctrls.rdQLenPdf::18                      0                       # What read queue length does an incoming req see
system.mem_ctrls.rdQLenPdf::19                      0                       # What read queue length does an incoming req see
system.mem_ctrls.rdQLenPdf::20                      0                       # What read queue length does an incoming req see
system.mem_ctrls.rdQLenPdf::21                      0                       # What read queue length does an incoming req see
system.mem_ctrls.rdQLenPdf::22                      0                       # What read queue length does an incoming req see
system.mem_ctrls.rdQLenPdf::23                      0                       # What read queue length does an incoming req see
system.mem_ctrls.rdQLenPdf::24                      0                       # What read queue length does an incoming req see
system.mem_ctrls.rdQLenPdf::25                      0                       # What read queue length does an incoming req see
system.mem_ctrls.rdQLenPdf::26                      0                       # What read queue length does an incoming req see
system.mem_ctrls.rdQLenPdf::27                      0                       # What read queue length does an incoming req see
system.mem_ctrls.rdQLenPdf::28                      0                       # What read queue length does an incoming req see
system.mem_ctrls.rdQLenPdf::29                      0                       # What read queue length does an incoming req see
system.mem_ctrls.rdQLenPdf::30                      0                       # What read queue length does an incoming req see
system.mem_ctrls.rdQLenPdf::31                      0                       # What read queue length does an incoming req see
system.mem_ctrls.wrQLenPdf::0                       0                       # What write queue length does an incoming req see
system.mem_ctrls.wrQLenPdf::1                       0                       # What write queue length does an incoming req see
system.mem_ctrls.wrQLenPdf::2                       0                       # What write queue length does an incoming req see
system.mem_ctrls.wrQLenPdf::3                       0                       # What write queue length does an incoming req see
system.mem_ctrls.wrQLenPdf::4                       0                       # What write queue length does an incoming req see
system.mem_ctrls.wrQLenPdf::5                       0                       # What write queue length does an incoming req see
system.mem_ctrls.wrQLenPdf::6                       0                       # What write queue length does an incoming req see
system.mem_ctrls.wrQLenPdf::7                       0                       # What write queue length does an incoming req see
system.mem_ctrls.wrQLenPdf::8                       0                       # What write queue length does an incoming req see
system.mem_ctrls.wrQLenPdf::9                       0                       # What write queue length does an incoming req see
system.mem_ctrls.wrQLenPdf::10                      0                       # What write queue length does an incoming req see
system.mem_ctrls.wrQLenPdf::11                      0                       # What write queue length does an incoming req see
system.mem_ctrls.wrQLenPdf::12                      0                       # What write queue length does an incoming req see
system.mem_ctrls.wrQLenPdf::13                      1                       # What write queue length does an incoming req see
system.mem_ctrls.wrQLenPdf::14                      1                       # What write queue length does an incoming req see
system.mem_ctrls.wrQLenPdf::15                    320                       # What write queue length does an incoming req see
system.mem_ctrls.wrQLenPdf::16                    374                       # What write queue length does an incoming req see
system.mem_ctrls.wrQLenPdf::17                    510                       # What write queue length does an incoming req see
system.mem_ctrls.wrQLenPdf::18                    567                       # What write queue length does an incoming req see
system.mem_ctrls.wrQLenPdf::19                    550                       # What write queue length does an incoming req see
system.mem_ctrls.wrQLenPdf::20                    605                       # What write queue length does an incoming req see
system.mem_ctrls.wrQLenPdf::21                    570                       # What write queue length does an incoming req see
system.mem_ctrls.wrQLenPdf::22                    631                       # What write queue length does an incoming req see
system.mem_ctrls.wrQLenPdf::23                    578                       # What write queue length does an incoming req see
system.mem_ctrls.wrQLenPdf::24                    657                       # What write queue length does an incoming req see
system.mem_ctrls.wrQLenPdf::25                    583                       # What write queue length does an incoming req see
system.mem_ctrls.wrQLenPdf::26                    597                       # What write queue length does an incoming req see
system.mem_ctrls.wrQLenPdf::27                    575                       # What write queue length does an incoming req see
system.mem_ctrls.wrQLenPdf::28                    593                       # What write queue length does an incoming req see
system.mem_ctrls.wrQLenPdf::29                    550                       # What write queue length does an incoming req see
system.mem_ctrls.wrQLenPdf::30                    571                       # What write queue length does an incoming req see
system.mem_ctrls.wrQLenPdf::31                    540                       # What write queue length does an incoming req see
system.mem_ctrls.wrQLenPdf::32                    538                       # What write queue length does an incoming req see
system.mem_ctrls.wrQLenPdf::33                      9                       # What write queue length does an incoming req see
system.mem_ctrls.wrQLenPdf::34                     11                       # What write queue length does an incoming req see
system.mem_ctrls.wrQLenPdf::35                      7                       # What write queue length does an incoming req see
system.mem_ctrls.wrQLenPdf::36                      9                       # What write queue length does an incoming req see
system.mem_ctrls.wrQLenPdf::37                      6                       # What write queue length does an incoming req see
system.mem_ctrls.wrQLenPdf::38                      8                       # What write queue length does an incoming req see
system.mem_ctrls.wrQLenPdf::39                      4                       # What write queue length does an incoming req see
system.mem_ctrls.wrQLenPdf::40                      5                       # What write queue length does an incoming req see
system.mem_ctrls.wrQLenPdf::41                      4                       # What write queue length does an incoming req see
system.mem_ctrls.wrQLenPdf::42                      4                       # What write queue length does an incoming req see
system.mem_ctrls.wrQLenPdf::43                      3                       # What write queue length does an incoming req see
system.mem_ctrls.wrQLenPdf::44                      3                       # What write queue length does an incoming req see
system.mem_ctrls.wrQLenPdf::45                      3                       # What write queue length does an incoming req see
system.mem_ctrls.wrQLenPdf::46                      3                       # What write queue length does an incoming req see
system.mem_ctrls.wrQLenPdf::47                      1                       # What write queue length does an incoming req see
system.mem_ctrls.wrQLenPdf::48                      1                       # What write queue length does an incoming req see
system.mem_ctrls.wrQLenPdf::49                      0                       # What write queue length does an incoming req see
system.mem_ctrls.wrQLenPdf::50                      0                       # What write queue length does an incoming req see
system.mem_ctrls.wrQLenPdf::51                      0                       # What write queue length does an incoming req see
system.mem_ctrls.wrQLenPdf::52                      0                       # What write queue length does an incoming req see
system.mem_ctrls.wrQLenPdf::53                      0                       # What write queue length does an incoming req see
system.mem_ctrls.wrQLenPdf::54                      0                       # What write queue length does an incoming req see
system.mem_ctrls.wrQLenPdf::55                      0                       # What write queue length does an incoming req see
system.mem_ctrls.wrQLenPdf::56                      0                       # What write queue length does an incoming req see
system.mem_ctrls.wrQLenPdf::57                      0                       # What write queue length does an incoming req see
system.mem_ctrls.wrQLenPdf::58                      0                       # What write queue length does an incoming req see
system.mem_ctrls.wrQLenPdf::59                      0                       # What write queue length does an incoming req see
system.mem_ctrls.wrQLenPdf::60                      0                       # What write queue length does an incoming req see
system.mem_ctrls.wrQLenPdf::61                      0                       # What write queue length does an incoming req see
system.mem_ctrls.wrQLenPdf::62                      0                       # What write queue length does an incoming req see
system.mem_ctrls.wrQLenPdf::63                      0                       # What write queue length does an incoming req see
system.mem_ctrls.bytesPerActivate::samples        11119                       # Bytes accessed per row activation
system.mem_ctrls.bytesPerActivate::mean    192.425938                       # Bytes accessed per row activation
system.mem_ctrls.bytesPerActivate::gmean   117.320880                       # Bytes accessed per row activation
system.mem_ctrls.bytesPerActivate::stdev   259.961086                       # Bytes accessed per row activation
system.mem_ctrls.bytesPerActivate::0-127         6196     55.72%     55.72% # Bytes accessed per row activation
system.mem_ctrls.bytesPerActivate::128-255         2888     25.97%     81.70% # Bytes accessed per row activation
system.mem_ctrls.bytesPerActivate::256-383          595      5.35%     87.05% # Bytes accessed per row activation
system.mem_ctrls.bytesPerActivate::384-511          306      2.75%     89.80% # Bytes accessed per row activation
system.mem_ctrls.bytesPerActivate::512-639          154      1.39%     91.19% # Bytes accessed per row activation
system.mem_ctrls.bytesPerActivate::640-767           94      0.85%     92.03% # Bytes accessed per row activation
system.mem_ctrls.bytesPerActivate::768-895           73      0.66%     92.69% # Bytes accessed per row activation
system.mem_ctrls.bytesPerActivate::896-1023           64      0.58%     93.26% # Bytes accessed per row activation
system.mem_ctrls.bytesPerActivate::1024-1151          749      6.74%    100.00% # Bytes accessed per row activation
system.mem_ctrls.bytesPerActivate::total        11119                       # Bytes accessed per row activation
system.mem_ctrls.rdPerTurnAround::samples          519                       # Reads before turning the bus around for writes
system.mem_ctrls.rdPerTurnAround::mean      77.996146                       # Reads before turning the bus around for writes
system.mem_ctrls.rdPerTurnAround::stdev    775.304230                       # Reads before turning the bus around for writes
system.mem_ctrls.rdPerTurnAround::0-1023          518     99.81%     99.81% # Reads before turning the bus around for writes
system.mem_ctrls.rdPerTurnAround::17408-18431            1      0.19%    100.00% # Reads before turning the bus around for writes
system.mem_ctrls.rdPerTurnAround::total           519                       # Reads before turning the bus around for writes
system.mem_ctrls.wrPerTurnAround::samples          519                       # Writes before turning the bus around for reads
system.mem_ctrls.wrPerTurnAround::mean      19.238921                       # Writes before turning the bus around for reads
system.mem_ctrls.wrPerTurnAround::gmean     18.728558                       # Writes before turning the bus around for reads
system.mem_ctrls.wrPerTurnAround::stdev      5.236192                       # Writes before turning the bus around for reads
system.mem_ctrls.wrPerTurnAround::16              168     32.37%     32.37% # Writes before turning the bus around for reads
system.mem_ctrls.wrPerTurnAround::17               23      4.43%     36.80% # Writes before turning the bus around for reads
system.mem_ctrls.wrPerTurnAround::18              202     38.92%     75.72% # Writes before turning the bus around for reads
system.mem_ctrls.wrPerTurnAround::19               38      7.32%     83.04% # Writes before turning the bus around for reads
system.mem_ctrls.wrPerTurnAround::20                8      1.54%     84.59% # Writes before turning the bus around for reads
system.mem_ctrls.wrPerTurnAround::21                3      0.58%     85.16% # Writes before turning the bus around for reads
system.mem_ctrls.wrPerTurnAround::22                2      0.39%     85.55% # Writes before turning the bus around for reads
system.mem_ctrls.wrPerTurnAround::23               14      2.70%     88.25% # Writes before turning the bus around for reads
system.mem_ctrls.wrPerTurnAround::24                5      0.96%     89.21% # Writes before turning the bus around for reads
system.mem_ctrls.wrPerTurnAround::25                5      0.96%     90.17% # Writes before turning the bus around for reads
system.mem_ctrls.wrPerTurnAround::26                2      0.39%     90.56% # Writes before turning the bus around for reads
system.mem_ctrls.wrPerTurnAround::27                3      0.58%     91.14% # Writes before turning the bus around for reads
system.mem_ctrls.wrPerTurnAround::29                6      1.16%     92.29% # Writes before turning the bus around for reads
system.mem_ctrls.wrPerTurnAround::30                5      0.96%     93.26% # Writes before turning the bus around for reads
system.mem_ctrls.wrPerTurnAround::33                2      0.39%     93.64% # Writes before turning the bus around for reads
system.mem_ctrls.wrPerTurnAround::34                9      1.73%     95.38% # Writes before turning the bus around for reads
system.mem_ctrls.wrPerTurnAround::35               18      3.47%     98.84% # Writes before turning the bus around for reads
system.mem_ctrls.wrPerTurnAround::40                1      0.19%     99.04% # Writes before turning the bus around for reads
system.mem_ctrls.wrPerTurnAround::41                2      0.39%     99.42% # Writes before turning the bus around for reads
system.mem_ctrls.wrPerTurnAround::43                1      0.19%     99.61% # Writes before turning the bus around for reads
system.mem_ctrls.wrPerTurnAround::44                1      0.19%     99.81% # Writes before turning the bus around for reads
system.mem_ctrls.wrPerTurnAround::46                1      0.19%    100.00% # Writes before turning the bus around for reads
system.mem_ctrls.wrPerTurnAround::total           519                       # Writes before turning the bus around for reads
system.mem_ctrls.totQLat                    203929250                       # Total ticks spent queuing
system.mem_ctrls.totMemAccLat               643616750                       # Total ticks spent from burst creation until serviced by the DRAM
system.mem_ctrls.totBusLat                  117250000                       # Total ticks spent in databus transfers
system.mem_ctrls.avgQLat                      8696.34                       # Average queueing delay per DRAM burst
system.mem_ctrls.avgBusLat                    5000.00                       # Average bus latency per DRAM burst
system.mem_ctrls.avgMemAccLat                27446.34                       # Average memory access latency per DRAM burst
system.mem_ctrls.avgRdBW                         0.42                       # Average DRAM read bandwidth in MiByte/s
system.mem_ctrls.avgWrBW                         0.18                       # Average achieved write bandwidth in MiByte/s
system.mem_ctrls.avgRdBWSys                      0.42                       # Average system read bandwidth in MiByte/s
system.mem_ctrls.avgWrBWSys                      0.18                       # Average system write bandwidth in MiByte/s
system.mem_ctrls.peakBW                      12800.00                       # Theoretical peak bandwidth in MiByte/s
system.mem_ctrls.busUtil                         0.00                       # Data bus utilization in percentage
system.mem_ctrls.busUtilRead                     0.00                       # Data bus utilization in percentage for reads
system.mem_ctrls.busUtilWrite                    0.00                       # Data bus utilization in percentage for writes
system.mem_ctrls.avgRdQLen                       1.00                       # Average read queue length when enqueuing
system.mem_ctrls.avgWrQLen                      24.14                       # Average write queue length when enqueuing
system.mem_ctrls.readRowHits                    17213                       # Number of row buffer hits during reads
system.mem_ctrls.writeRowHits                    5101                       # Number of row buffer hits during writes
system.mem_ctrls.readRowHitRate                 73.40                       # Row buffer hit rate for reads
system.mem_ctrls.writeRowHitRate                51.05                       # Row buffer hit rate for writes
system.mem_ctrls.avgGap                  106741020.04                       # Average gap between requests
system.mem_ctrls.pageHitRate                    66.72                       # Row buffer hit rate, read and write combined
system.mem_ctrls_0.actEnergy                 60298560                       # Energy for activate commands per rank (pJ)
system.mem_ctrls_0.preEnergy                 32901000                       # Energy for precharge commands per rank (pJ)
system.mem_ctrls_0.readEnergy               158839200                       # Energy for read commands per rank (pJ)
system.mem_ctrls_0.writeEnergy               39236400                       # Energy for write commands per rank (pJ)
system.mem_ctrls_0.refreshEnergy         235769941680                       # Energy for refresh commands per rank (pJ)
system.mem_ctrls_0.actBackEnergy          82916830395                       # Energy for active background per rank (pJ)
system.mem_ctrls_0.preBackEnergy         2093103409500                       # Energy for precharge background per rank (pJ)
system.mem_ctrls_0.totalEnergy           2412081456735                       # Total energy per rank (pJ)
system.mem_ctrls_0.averagePower            668.216749                       # Core power per rank (mW)
system.mem_ctrls_0.memoryStateTime::IDLE 3480732428000                       # Time in different power states
system.mem_ctrls_0.memoryStateTime::REF  120416920000                       # Time in different power states
system.mem_ctrls_0.memoryStateTime::PRE_PDN            0                       # Time in different power states
system.mem_ctrls_0.memoryStateTime::ACT    4990094500                       # Time in different power states
system.mem_ctrls_0.memoryStateTime::ACT_PDN            0                       # Time in different power states
system.mem_ctrls_1.actEnergy                 55021680                       # Energy for activate commands per rank (pJ)
system.mem_ctrls_1.preEnergy                 30021750                       # Energy for precharge commands per rank (pJ)
system.mem_ctrls_1.readEnergy               156904800                       # Energy for read commands per rank (pJ)
system.mem_ctrls_1.writeEnergy               25466400                       # Energy for write commands per rank (pJ)
system.mem_ctrls_1.refreshEnergy         235769941680                       # Energy for refresh commands per rank (pJ)
system.mem_ctrls_1.actBackEnergy          83006450640                       # Energy for active background per rank (pJ)
system.mem_ctrls_1.preBackEnergy         2093024795250                       # Energy for precharge background per rank (pJ)
system.mem_ctrls_1.totalEnergy           2412068602200                       # Total energy per rank (pJ)
system.mem_ctrls_1.averagePower            668.213188                       # Core power per rank (mW)
system.mem_ctrls_1.memoryStateTime::IDLE 3480641251750                       # Time in different power states
system.mem_ctrls_1.memoryStateTime::REF  120416920000                       # Time in different power states
system.mem_ctrls_1.memoryStateTime::PRE_PDN            0                       # Time in different power states
system.mem_ctrls_1.memoryStateTime::ACT    5081225750                       # Time in different power states
system.mem_ctrls_1.memoryStateTime::ACT_PDN            0                       # Time in different power states
system.cpu_voltage_domain.voltage                   1                       # Voltage in Volts
system.cpu_clk_domain.clock                       500                       # Clock period in ticks
system.cpu0.apic_clk_domain.clock                8000                       # Clock period in ticks
system.cpu0.numCycles                      7213818133                       # number of cpu cycles simulated
system.cpu0.numWorkItemsStarted                     0                       # number of work items this cpu started
system.cpu0.numWorkItemsCompleted                   0                       # number of work items this cpu completed
system.cpu0.kern.inst.arm                           0                       # number of arm instructions executed
system.cpu0.kern.inst.quiesce                       0                       # number of quiesce instructions executed
system.cpu0.committedInsts                 1994446640                       # Number of instructions committed
system.cpu0.committedOps                   3392929912                       # Number of ops (including micro ops) committed
system.cpu0.num_int_alu_accesses           2757574342                       # Number of integer alu accesses
system.cpu0.num_fp_alu_accesses            1010088612                       # Number of float alu accesses
system.cpu0.num_func_calls                   49946904                       # number of times a function call or return occured
system.cpu0.num_conditional_control_insts    199814353                       # number of instructions that are conditional controls
system.cpu0.num_int_insts                  2757574342                       # number of integer instructions
system.cpu0.num_fp_insts                   1010088612                       # number of float instructions
system.cpu0.num_int_register_reads         5218345648                       # number of times the integer registers were read
system.cpu0.num_int_register_writes        2052613214                       # number of times the integer registers were written
system.cpu0.num_fp_register_reads          1701898908                       # number of times the floating registers were read
system.cpu0.num_fp_register_writes          899765734                       # number of times the floating registers were written
system.cpu0.num_cc_register_reads          1288640071                       # number of times the CC registers were read
system.cpu0.num_cc_register_writes         1039379260                       # number of times the CC registers were written
system.cpu0.num_mem_refs                    738245451                       # number of memory refs
system.cpu0.num_load_insts                  571809772                       # Number of load instructions
system.cpu0.num_store_insts                 166435679                       # Number of store instructions
system.cpu0.num_idle_cycles              64342675.034341                       # Number of idle cycles
system.cpu0.num_busy_cycles              7149475457.965659                       # Number of busy cycles
system.cpu0.not_idle_fraction                0.991081                       # Percentage of non-idle cycles
system.cpu0.idle_fraction                    0.008919                       # Percentage of idle cycles
system.cpu0.Branches                        261173971                       # Number of branches fetched
system.cpu0.op_class::No_OpClass              1512129      0.04%      0.04% # Class of executed instruction
system.cpu0.op_class::IntAlu               2189299400     64.53%     64.57% # Class of executed instruction
system.cpu0.op_class::IntMult                24043353      0.71%     65.28% # Class of executed instruction
system.cpu0.op_class::IntDiv                   210292      0.01%     65.28% # Class of executed instruction
system.cpu0.op_class::FloatAdd              439619442     12.96%     78.24% # Class of executed instruction
system.cpu0.op_class::FloatCmp                      0      0.00%     78.24% # Class of executed instruction
system.cpu0.op_class::FloatCvt                      0      0.00%     78.24% # Class of executed instruction
system.cpu0.op_class::FloatMult                     0      0.00%     78.24% # Class of executed instruction
system.cpu0.op_class::FloatDiv                      0      0.00%     78.24% # Class of executed instruction
system.cpu0.op_class::FloatSqrt                     0      0.00%     78.24% # Class of executed instruction
system.cpu0.op_class::SimdAdd                       0      0.00%     78.24% # Class of executed instruction
system.cpu0.op_class::SimdAddAcc                    0      0.00%     78.24% # Class of executed instruction
system.cpu0.op_class::SimdAlu                       0      0.00%     78.24% # Class of executed instruction
system.cpu0.op_class::SimdCmp                       0      0.00%     78.24% # Class of executed instruction
system.cpu0.op_class::SimdCvt                       0      0.00%     78.24% # Class of executed instruction
system.cpu0.op_class::SimdMisc                      0      0.00%     78.24% # Class of executed instruction
system.cpu0.op_class::SimdMult                      0      0.00%     78.24% # Class of executed instruction
system.cpu0.op_class::SimdMultAcc                   0      0.00%     78.24% # Class of executed instruction
system.cpu0.op_class::SimdShift                     0      0.00%     78.24% # Class of executed instruction
system.cpu0.op_class::SimdShiftAcc                  0      0.00%     78.24% # Class of executed instruction
system.cpu0.op_class::SimdSqrt                      0      0.00%     78.24% # Class of executed instruction
system.cpu0.op_class::SimdFloatAdd                  0      0.00%     78.24% # Class of executed instruction
system.cpu0.op_class::SimdFloatAlu                  0      0.00%     78.24% # Class of executed instruction
system.cpu0.op_class::SimdFloatCmp                  0      0.00%     78.24% # Class of executed instruction
system.cpu0.op_class::SimdFloatCvt                  0      0.00%     78.24% # Class of executed instruction
system.cpu0.op_class::SimdFloatDiv                  0      0.00%     78.24% # Class of executed instruction
system.cpu0.op_class::SimdFloatMisc                 0      0.00%     78.24% # Class of executed instruction
system.cpu0.op_class::SimdFloatMult                 0      0.00%     78.24% # Class of executed instruction
system.cpu0.op_class::SimdFloatMultAcc              0      0.00%     78.24% # Class of executed instruction
system.cpu0.op_class::SimdFloatSqrt                 0      0.00%     78.24% # Class of executed instruction
system.cpu0.op_class::MemRead               571809772     16.85%     95.09% # Class of executed instruction
system.cpu0.op_class::MemWrite              166435679      4.91%    100.00% # Class of executed instruction
system.cpu0.op_class::IprAccess                     0      0.00%    100.00% # Class of executed instruction
system.cpu0.op_class::InstPrefetch                  0      0.00%    100.00% # Class of executed instruction
system.cpu0.op_class::total                3392930067                       # Class of executed instruction
system.cpu1.apic_clk_domain.clock                8000                       # Clock period in ticks
system.cpu1.numCycles                      7213428455                       # number of cpu cycles simulated
system.cpu1.numWorkItemsStarted                     0                       # number of work items this cpu started
system.cpu1.numWorkItemsCompleted                   0                       # number of work items this cpu completed
system.cpu1.kern.inst.arm                           0                       # number of arm instructions executed
system.cpu1.kern.inst.quiesce                       0                       # number of quiesce instructions executed
system.cpu1.committedInsts                    2720059                       # Number of instructions committed
system.cpu1.committedOps                      5826455                       # Number of ops (including micro ops) committed
system.cpu1.num_int_alu_accesses              5701426                       # Number of integer alu accesses
system.cpu1.num_fp_alu_accesses                    65                       # Number of float alu accesses
system.cpu1.num_func_calls                     158545                       # number of times a function call or return occured
system.cpu1.num_conditional_control_insts       418829                       # number of instructions that are conditional controls
system.cpu1.num_int_insts                     5701426                       # number of integer instructions
system.cpu1.num_fp_insts                           65                       # number of float instructions
system.cpu1.num_int_register_reads           11553365                       # number of times the integer registers were read
system.cpu1.num_int_register_writes           4726044                       # number of times the integer registers were written
system.cpu1.num_fp_register_reads                  82                       # number of times the floating registers were read
system.cpu1.num_fp_register_writes                 44                       # number of times the floating registers were written
system.cpu1.num_cc_register_reads             3322562                       # number of times the CC registers were read
system.cpu1.num_cc_register_writes            1746459                       # number of times the CC registers were written
system.cpu1.num_mem_refs                      1373976                       # number of memory refs
system.cpu1.num_load_insts                     854304                       # Number of load instructions
system.cpu1.num_store_insts                    519672                       # Number of store instructions
system.cpu1.num_idle_cycles              7201778891.400490                       # Number of idle cycles
system.cpu1.num_busy_cycles              11649563.599511                       # Number of busy cycles
system.cpu1.not_idle_fraction                0.001615                       # Percentage of non-idle cycles
system.cpu1.idle_fraction                    0.998385                       # Percentage of idle cycles
system.cpu1.Branches                           628828                       # Number of branches fetched
system.cpu1.op_class::No_OpClass               105586      1.81%      1.81% # Class of executed instruction
system.cpu1.op_class::IntAlu                  4297210     73.75%     75.57% # Class of executed instruction
system.cpu1.op_class::IntMult                   11634      0.20%     75.77% # Class of executed instruction
system.cpu1.op_class::IntDiv                    38047      0.65%     76.42% # Class of executed instruction
system.cpu1.op_class::FloatAdd                     22      0.00%     76.42% # Class of executed instruction
system.cpu1.op_class::FloatCmp                      0      0.00%     76.42% # Class of executed instruction
system.cpu1.op_class::FloatCvt                      0      0.00%     76.42% # Class of executed instruction
system.cpu1.op_class::FloatMult                     0      0.00%     76.42% # Class of executed instruction
system.cpu1.op_class::FloatDiv                      0      0.00%     76.42% # Class of executed instruction
system.cpu1.op_class::FloatSqrt                     0      0.00%     76.42% # Class of executed instruction
system.cpu1.op_class::SimdAdd                       0      0.00%     76.42% # Class of executed instruction
system.cpu1.op_class::SimdAddAcc                    0      0.00%     76.42% # Class of executed instruction
system.cpu1.op_class::SimdAlu                       0      0.00%     76.42% # Class of executed instruction
system.cpu1.op_class::SimdCmp                       0      0.00%     76.42% # Class of executed instruction
system.cpu1.op_class::SimdCvt                       0      0.00%     76.42% # Class of executed instruction
system.cpu1.op_class::SimdMisc                      0      0.00%     76.42% # Class of executed instruction
system.cpu1.op_class::SimdMult                      0      0.00%     76.42% # Class of executed instruction
system.cpu1.op_class::SimdMultAcc                   0      0.00%     76.42% # Class of executed instruction
system.cpu1.op_class::SimdShift                     0      0.00%     76.42% # Class of executed instruction
system.cpu1.op_class::SimdShiftAcc                  0      0.00%     76.42% # Class of executed instruction
system.cpu1.op_class::SimdSqrt                      0      0.00%     76.42% # Class of executed instruction
system.cpu1.op_class::SimdFloatAdd                  0      0.00%     76.42% # Class of executed instruction
system.cpu1.op_class::SimdFloatAlu                  0      0.00%     76.42% # Class of executed instruction
system.cpu1.op_class::SimdFloatCmp                  0      0.00%     76.42% # Class of executed instruction
system.cpu1.op_class::SimdFloatCvt                  0      0.00%     76.42% # Class of executed instruction
system.cpu1.op_class::SimdFloatDiv                  0      0.00%     76.42% # Class of executed instruction
system.cpu1.op_class::SimdFloatMisc                 0      0.00%     76.42% # Class of executed instruction
system.cpu1.op_class::SimdFloatMult                 0      0.00%     76.42% # Class of executed instruction
system.cpu1.op_class::SimdFloatMultAcc              0      0.00%     76.42% # Class of executed instruction
system.cpu1.op_class::SimdFloatSqrt                 0      0.00%     76.42% # Class of executed instruction
system.cpu1.op_class::MemRead                  854304     14.66%     91.08% # Class of executed instruction
system.cpu1.op_class::MemWrite                 519672      8.92%    100.00% # Class of executed instruction
system.cpu1.op_class::IprAccess                     0      0.00%    100.00% # Class of executed instruction
system.cpu1.op_class::InstPrefetch                  0      0.00%    100.00% # Class of executed instruction
system.cpu1.op_class::total                   5826475                       # Class of executed instruction
system.cpu2.apic_clk_domain.clock                8000                       # Clock period in ticks
system.cpu2.numCycles                      7211740782                       # number of cpu cycles simulated
system.cpu2.numWorkItemsStarted                     0                       # number of work items this cpu started
system.cpu2.numWorkItemsCompleted                   0                       # number of work items this cpu completed
system.cpu2.kern.inst.arm                           0                       # number of arm instructions executed
system.cpu2.kern.inst.quiesce                       0                       # number of quiesce instructions executed
system.cpu2.committedInsts                    3276860                       # Number of instructions committed
system.cpu2.committedOps                      6830618                       # Number of ops (including micro ops) committed
system.cpu2.num_int_alu_accesses              6694567                       # Number of integer alu accesses
system.cpu2.num_fp_alu_accesses                  1837                       # Number of float alu accesses
system.cpu2.num_func_calls                     173744                       # number of times a function call or return occured
system.cpu2.num_conditional_control_insts       506951                       # number of instructions that are conditional controls
system.cpu2.num_int_insts                     6694567                       # number of integer instructions
system.cpu2.num_fp_insts                         1837                       # number of float instructions
system.cpu2.num_int_register_reads           13582882                       # number of times the integer registers were read
system.cpu2.num_int_register_writes           5529746                       # number of times the integer registers were written
system.cpu2.num_fp_register_reads                3081                       # number of times the floating registers were read
system.cpu2.num_fp_register_writes               1457                       # number of times the floating registers were written
system.cpu2.num_cc_register_reads             3896722                       # number of times the CC registers were read
system.cpu2.num_cc_register_writes            2109823                       # number of times the CC registers were written
system.cpu2.num_mem_refs                      1596846                       # number of memory refs
system.cpu2.num_load_insts                     990585                       # Number of load instructions
system.cpu2.num_store_insts                    606261                       # Number of store instructions
system.cpu2.num_idle_cycles              7197674109.886575                       # Number of idle cycles
system.cpu2.num_busy_cycles              14066672.113426                       # Number of busy cycles
system.cpu2.not_idle_fraction                0.001951                       # Percentage of non-idle cycles
system.cpu2.idle_fraction                    0.998049                       # Percentage of idle cycles
system.cpu2.Branches                           739715                       # Number of branches fetched
system.cpu2.op_class::No_OpClass               111306      1.63%      1.63% # Class of executed instruction
system.cpu2.op_class::IntAlu                  5069337     74.21%     75.84% # Class of executed instruction
system.cpu2.op_class::IntMult                   12369      0.18%     76.02% # Class of executed instruction
system.cpu2.op_class::IntDiv                    39481      0.58%     76.60% # Class of executed instruction
system.cpu2.op_class::FloatAdd                   1366      0.02%     76.62% # Class of executed instruction
system.cpu2.op_class::FloatCmp                      0      0.00%     76.62% # Class of executed instruction
system.cpu2.op_class::FloatCvt                      0      0.00%     76.62% # Class of executed instruction
system.cpu2.op_class::FloatMult                     0      0.00%     76.62% # Class of executed instruction
system.cpu2.op_class::FloatDiv                      0      0.00%     76.62% # Class of executed instruction
system.cpu2.op_class::FloatSqrt                     0      0.00%     76.62% # Class of executed instruction
system.cpu2.op_class::SimdAdd                       0      0.00%     76.62% # Class of executed instruction
system.cpu2.op_class::SimdAddAcc                    0      0.00%     76.62% # Class of executed instruction
system.cpu2.op_class::SimdAlu                       0      0.00%     76.62% # Class of executed instruction
system.cpu2.op_class::SimdCmp                       0      0.00%     76.62% # Class of executed instruction
system.cpu2.op_class::SimdCvt                       0      0.00%     76.62% # Class of executed instruction
system.cpu2.op_class::SimdMisc                      0      0.00%     76.62% # Class of executed instruction
system.cpu2.op_class::SimdMult                      0      0.00%     76.62% # Class of executed instruction
system.cpu2.op_class::SimdMultAcc                   0      0.00%     76.62% # Class of executed instruction
system.cpu2.op_class::SimdShift                     0      0.00%     76.62% # Class of executed instruction
system.cpu2.op_class::SimdShiftAcc                  0      0.00%     76.62% # Class of executed instruction
system.cpu2.op_class::SimdSqrt                      0      0.00%     76.62% # Class of executed instruction
system.cpu2.op_class::SimdFloatAdd                  0      0.00%     76.62% # Class of executed instruction
system.cpu2.op_class::SimdFloatAlu                  0      0.00%     76.62% # Class of executed instruction
system.cpu2.op_class::SimdFloatCmp                  0      0.00%     76.62% # Class of executed instruction
system.cpu2.op_class::SimdFloatCvt                  0      0.00%     76.62% # Class of executed instruction
system.cpu2.op_class::SimdFloatDiv                  0      0.00%     76.62% # Class of executed instruction
system.cpu2.op_class::SimdFloatMisc                 0      0.00%     76.62% # Class of executed instruction
system.cpu2.op_class::SimdFloatMult                 0      0.00%     76.62% # Class of executed instruction
system.cpu2.op_class::SimdFloatMultAcc              0      0.00%     76.62% # Class of executed instruction
system.cpu2.op_class::SimdFloatSqrt                 0      0.00%     76.62% # Class of executed instruction
system.cpu2.op_class::MemRead                  990585     14.50%     91.12% # Class of executed instruction
system.cpu2.op_class::MemWrite                 606261      8.88%    100.00% # Class of executed instruction
system.cpu2.op_class::IprAccess                     0      0.00%    100.00% # Class of executed instruction
system.cpu2.op_class::InstPrefetch                  0      0.00%    100.00% # Class of executed instruction
system.cpu2.op_class::total                   6830705                       # Class of executed instruction
system.cpu3.apic_clk_domain.clock                8000                       # Clock period in ticks
system.cpu3.numCycles                      7210658711                       # number of cpu cycles simulated
system.cpu3.numWorkItemsStarted                     0                       # number of work items this cpu started
system.cpu3.numWorkItemsCompleted                   0                       # number of work items this cpu completed
system.cpu3.kern.inst.arm                           0                       # number of arm instructions executed
system.cpu3.kern.inst.quiesce                       0                       # number of quiesce instructions executed
system.cpu3.committedInsts                   19103309                       # Number of instructions committed
system.cpu3.committedOps                     33682210                       # Number of ops (including micro ops) committed
system.cpu3.num_int_alu_accesses             28295790                       # Number of integer alu accesses
system.cpu3.num_fp_alu_accesses               8399271                       # Number of float alu accesses
system.cpu3.num_func_calls                     574911                       # number of times a function call or return occured
system.cpu3.num_conditional_control_insts      2013017                       # number of instructions that are conditional controls
system.cpu3.num_int_insts                    28295790                       # number of integer instructions
system.cpu3.num_fp_insts                      8399271                       # number of float instructions
system.cpu3.num_int_register_reads           54560848                       # number of times the integer registers were read
system.cpu3.num_int_register_writes          21499594                       # number of times the integer registers were written
system.cpu3.num_fp_register_reads            14064247                       # number of times the floating registers were read
system.cpu3.num_fp_register_writes            7474237                       # number of times the floating registers were written
system.cpu3.num_cc_register_reads            13703556                       # number of times the CC registers were read
system.cpu3.num_cc_register_writes           10136574                       # number of times the CC registers were written
system.cpu3.num_mem_refs                      7544974                       # number of memory refs
system.cpu3.num_load_insts                    5635039                       # Number of load instructions
system.cpu3.num_store_insts                   1909935                       # Number of store instructions
system.cpu3.num_idle_cycles              7139673218.172561                       # Number of idle cycles
system.cpu3.num_busy_cycles              70985492.827439                       # Number of busy cycles
system.cpu3.not_idle_fraction                0.009845                       # Percentage of non-idle cycles
system.cpu3.idle_fraction                    0.990155                       # Percentage of idle cycles
system.cpu3.Branches                          2735954                       # Number of branches fetched
system.cpu3.op_class::No_OpClass               117840      0.35%      0.35% # Class of executed instruction
system.cpu3.op_class::IntAlu                 22148890     65.76%     66.11% # Class of executed instruction
system.cpu3.op_class::IntMult                  212583      0.63%     66.74% # Class of executed instruction
system.cpu3.op_class::IntDiv                    39769      0.12%     66.86% # Class of executed instruction
system.cpu3.op_class::FloatAdd                3618197     10.74%     77.60% # Class of executed instruction
system.cpu3.op_class::FloatCmp                      0      0.00%     77.60% # Class of executed instruction
system.cpu3.op_class::FloatCvt                      0      0.00%     77.60% # Class of executed instruction
system.cpu3.op_class::FloatMult                     0      0.00%     77.60% # Class of executed instruction
system.cpu3.op_class::FloatDiv                      0      0.00%     77.60% # Class of executed instruction
system.cpu3.op_class::FloatSqrt                     0      0.00%     77.60% # Class of executed instruction
system.cpu3.op_class::SimdAdd                       0      0.00%     77.60% # Class of executed instruction
system.cpu3.op_class::SimdAddAcc                    0      0.00%     77.60% # Class of executed instruction
system.cpu3.op_class::SimdAlu                       0      0.00%     77.60% # Class of executed instruction
system.cpu3.op_class::SimdCmp                       0      0.00%     77.60% # Class of executed instruction
system.cpu3.op_class::SimdCvt                       0      0.00%     77.60% # Class of executed instruction
system.cpu3.op_class::SimdMisc                      0      0.00%     77.60% # Class of executed instruction
system.cpu3.op_class::SimdMult                      0      0.00%     77.60% # Class of executed instruction
system.cpu3.op_class::SimdMultAcc                   0      0.00%     77.60% # Class of executed instruction
system.cpu3.op_class::SimdShift                     0      0.00%     77.60% # Class of executed instruction
system.cpu3.op_class::SimdShiftAcc                  0      0.00%     77.60% # Class of executed instruction
system.cpu3.op_class::SimdSqrt                      0      0.00%     77.60% # Class of executed instruction
system.cpu3.op_class::SimdFloatAdd                  0      0.00%     77.60% # Class of executed instruction
system.cpu3.op_class::SimdFloatAlu                  0      0.00%     77.60% # Class of executed instruction
system.cpu3.op_class::SimdFloatCmp                  0      0.00%     77.60% # Class of executed instruction
system.cpu3.op_class::SimdFloatCvt                  0      0.00%     77.60% # Class of executed instruction
system.cpu3.op_class::SimdFloatDiv                  0      0.00%     77.60% # Class of executed instruction
system.cpu3.op_class::SimdFloatMisc                 0      0.00%     77.60% # Class of executed instruction
system.cpu3.op_class::SimdFloatMult                 0      0.00%     77.60% # Class of executed instruction
system.cpu3.op_class::SimdFloatMultAcc              0      0.00%     77.60% # Class of executed instruction
system.cpu3.op_class::SimdFloatSqrt                 0      0.00%     77.60% # Class of executed instruction
system.cpu3.op_class::MemRead                 5635039     16.73%     94.33% # Class of executed instruction
system.cpu3.op_class::MemWrite                1909935      5.67%    100.00% # Class of executed instruction
system.cpu3.op_class::IprAccess                     0      0.00%    100.00% # Class of executed instruction
system.cpu3.op_class::InstPrefetch                  0      0.00%    100.00% # Class of executed instruction
system.cpu3.op_class::total                  33682253                       # Class of executed instruction
system.iobus.trans_dist::ReadReq                  113                       # Transaction distribution
system.iobus.trans_dist::ReadResp                 113                       # Transaction distribution
system.iobus.trans_dist::WriteReq                3733                       # Transaction distribution
system.iobus.trans_dist::WriteResp               3733                       # Transaction distribution
system.iobus.trans_dist::MessageReq                19                       # Transaction distribution
system.iobus.trans_dist::MessageResp               19                       # Transaction distribution
system.iobus.pkt_count_system.pc.south_bridge.io_apic.int_master::system.ruby.l1_cntrl0.sequencer.pio-slave-port            4                       # Packet count per connected master and slave (bytes)
system.iobus.pkt_count_system.pc.south_bridge.io_apic.int_master::system.ruby.l1_cntrl1.sequencer.pio-slave-port            4                       # Packet count per connected master and slave (bytes)
system.iobus.pkt_count_system.pc.south_bridge.io_apic.int_master::system.ruby.l1_cntrl2.sequencer.pio-slave-port            4                       # Packet count per connected master and slave (bytes)
system.iobus.pkt_count_system.pc.south_bridge.io_apic.int_master::system.ruby.l1_cntrl3.sequencer.pio-slave-port            4                       # Packet count per connected master and slave (bytes)
system.iobus.pkt_count_system.pc.south_bridge.io_apic.int_master::total           16                       # Packet count per connected master and slave (bytes)
system.iobus.pkt_count_system.ruby.l1_cntrl0.sequencer.mem-master-port::system.pc.south_bridge.ide.pio           12                       # Packet count per connected master and slave (bytes)
system.iobus.pkt_count_system.ruby.l1_cntrl0.sequencer.mem-master-port::system.pc.south_bridge.io_apic.pio            8                       # Packet count per connected master and slave (bytes)
system.iobus.pkt_count_system.ruby.l1_cntrl0.sequencer.mem-master-port::system.ruby.l1_cntrl0.sequencer.pio-slave-port         1832                       # Packet count per connected master and slave (bytes)
system.iobus.pkt_count_system.ruby.l1_cntrl0.sequencer.mem-master-port::system.ruby.l1_cntrl1.sequencer.pio-slave-port            6                       # Packet count per connected master and slave (bytes)
system.iobus.pkt_count_system.ruby.l1_cntrl0.sequencer.mem-master-port::system.ruby.l1_cntrl2.sequencer.pio-slave-port            2                       # Packet count per connected master and slave (bytes)
system.iobus.pkt_count_system.ruby.l1_cntrl0.sequencer.mem-master-port::system.ruby.l1_cntrl3.sequencer.pio-slave-port            4                       # Packet count per connected master and slave (bytes)
system.iobus.pkt_count_system.ruby.l1_cntrl0.sequencer.mem-master-port::total         1864                       # Packet count per connected master and slave (bytes)
system.iobus.pkt_count_system.ruby.l1_cntrl1.sequencer.mem-master-port::system.pc.south_bridge.ide.pio           80                       # Packet count per connected master and slave (bytes)
system.iobus.pkt_count_system.ruby.l1_cntrl1.sequencer.mem-master-port::system.pc.south_bridge.io_apic.pio            8                       # Packet count per connected master and slave (bytes)
system.iobus.pkt_count_system.ruby.l1_cntrl1.sequencer.mem-master-port::system.pc.com_1.pio            2                       # Packet count per connected master and slave (bytes)
system.iobus.pkt_count_system.ruby.l1_cntrl1.sequencer.mem-master-port::system.ruby.l1_cntrl1.sequencer.pio-slave-port         1824                       # Packet count per connected master and slave (bytes)
system.iobus.pkt_count_system.ruby.l1_cntrl1.sequencer.mem-master-port::system.ruby.l1_cntrl2.sequencer.pio-slave-port            2                       # Packet count per connected master and slave (bytes)
system.iobus.pkt_count_system.ruby.l1_cntrl1.sequencer.mem-master-port::total         1916                       # Packet count per connected master and slave (bytes)
system.iobus.pkt_count_system.ruby.l1_cntrl2.sequencer.mem-master-port::system.pc.south_bridge.ide.pio           46                       # Packet count per connected master and slave (bytes)
system.iobus.pkt_count_system.ruby.l1_cntrl2.sequencer.mem-master-port::system.pc.south_bridge.io_apic.pio            6                       # Packet count per connected master and slave (bytes)
system.iobus.pkt_count_system.ruby.l1_cntrl2.sequencer.mem-master-port::system.pc.com_1.pio          174                       # Packet count per connected master and slave (bytes)
system.iobus.pkt_count_system.ruby.l1_cntrl2.sequencer.mem-master-port::system.ruby.l1_cntrl1.sequencer.pio-slave-port            2                       # Packet count per connected master and slave (bytes)
system.iobus.pkt_count_system.ruby.l1_cntrl2.sequencer.mem-master-port::system.ruby.l1_cntrl2.sequencer.pio-slave-port         1822                       # Packet count per connected master and slave (bytes)
system.iobus.pkt_count_system.ruby.l1_cntrl2.sequencer.mem-master-port::system.ruby.l1_cntrl3.sequencer.pio-slave-port            2                       # Packet count per connected master and slave (bytes)
system.iobus.pkt_count_system.ruby.l1_cntrl2.sequencer.mem-master-port::total         2052                       # Packet count per connected master and slave (bytes)
system.iobus.pkt_count_system.ruby.l1_cntrl3.sequencer.mem-master-port::system.pc.south_bridge.ide.pio           46                       # Packet count per connected master and slave (bytes)
system.iobus.pkt_count_system.ruby.l1_cntrl3.sequencer.mem-master-port::system.pc.south_bridge.io_apic.pio            8                       # Packet count per connected master and slave (bytes)
system.iobus.pkt_count_system.ruby.l1_cntrl3.sequencer.mem-master-port::system.ruby.l1_cntrl0.sequencer.pio-slave-port            2                       # Packet count per connected master and slave (bytes)
system.iobus.pkt_count_system.ruby.l1_cntrl3.sequencer.mem-master-port::system.ruby.l1_cntrl1.sequencer.pio-slave-port            2                       # Packet count per connected master and slave (bytes)
system.iobus.pkt_count_system.ruby.l1_cntrl3.sequencer.mem-master-port::system.ruby.l1_cntrl3.sequencer.pio-slave-port         1824                       # Packet count per connected master and slave (bytes)
system.iobus.pkt_count_system.ruby.l1_cntrl3.sequencer.mem-master-port::total         1882                       # Packet count per connected master and slave (bytes)
system.iobus.pkt_count::total                    7730                       # Packet count per connected master and slave (bytes)
system.iobus.pkt_size_system.pc.south_bridge.io_apic.int_master::system.ruby.l1_cntrl0.sequencer.pio-slave-port            8                       # Cumulative packet size per connected master and slave (bytes)
system.iobus.pkt_size_system.pc.south_bridge.io_apic.int_master::system.ruby.l1_cntrl1.sequencer.pio-slave-port            8                       # Cumulative packet size per connected master and slave (bytes)
system.iobus.pkt_size_system.pc.south_bridge.io_apic.int_master::system.ruby.l1_cntrl2.sequencer.pio-slave-port            8                       # Cumulative packet size per connected master and slave (bytes)
system.iobus.pkt_size_system.pc.south_bridge.io_apic.int_master::system.ruby.l1_cntrl3.sequencer.pio-slave-port            8                       # Cumulative packet size per connected master and slave (bytes)
system.iobus.pkt_size_system.pc.south_bridge.io_apic.int_master::total           32                       # Cumulative packet size per connected master and slave (bytes)
system.iobus.pkt_size_system.ruby.l1_cntrl0.sequencer.mem-master-port::system.pc.south_bridge.ide.pio            6                       # Cumulative packet size per connected master and slave (bytes)
system.iobus.pkt_size_system.ruby.l1_cntrl0.sequencer.mem-master-port::system.pc.south_bridge.io_apic.pio           16                       # Cumulative packet size per connected master and slave (bytes)
system.iobus.pkt_size_system.ruby.l1_cntrl0.sequencer.mem-master-port::system.ruby.l1_cntrl0.sequencer.pio-slave-port         3664                       # Cumulative packet size per connected master and slave (bytes)
system.iobus.pkt_size_system.ruby.l1_cntrl0.sequencer.mem-master-port::system.ruby.l1_cntrl1.sequencer.pio-slave-port           12                       # Cumulative packet size per connected master and slave (bytes)
system.iobus.pkt_size_system.ruby.l1_cntrl0.sequencer.mem-master-port::system.ruby.l1_cntrl2.sequencer.pio-slave-port            4                       # Cumulative packet size per connected master and slave (bytes)
system.iobus.pkt_size_system.ruby.l1_cntrl0.sequencer.mem-master-port::system.ruby.l1_cntrl3.sequencer.pio-slave-port            8                       # Cumulative packet size per connected master and slave (bytes)
system.iobus.pkt_size_system.ruby.l1_cntrl0.sequencer.mem-master-port::total         3710                       # Cumulative packet size per connected master and slave (bytes)
system.iobus.pkt_size_system.ruby.l1_cntrl1.sequencer.mem-master-port::system.pc.south_bridge.ide.pio           46                       # Cumulative packet size per connected master and slave (bytes)
system.iobus.pkt_size_system.ruby.l1_cntrl1.sequencer.mem-master-port::system.pc.south_bridge.io_apic.pio           16                       # Cumulative packet size per connected master and slave (bytes)
system.iobus.pkt_size_system.ruby.l1_cntrl1.sequencer.mem-master-port::system.pc.com_1.pio            1                       # Cumulative packet size per connected master and slave (bytes)
system.iobus.pkt_size_system.ruby.l1_cntrl1.sequencer.mem-master-port::system.ruby.l1_cntrl1.sequencer.pio-slave-port         3648                       # Cumulative packet size per connected master and slave (bytes)
system.iobus.pkt_size_system.ruby.l1_cntrl1.sequencer.mem-master-port::system.ruby.l1_cntrl2.sequencer.pio-slave-port            4                       # Cumulative packet size per connected master and slave (bytes)
system.iobus.pkt_size_system.ruby.l1_cntrl1.sequencer.mem-master-port::total         3715                       # Cumulative packet size per connected master and slave (bytes)
system.iobus.pkt_size_system.ruby.l1_cntrl2.sequencer.mem-master-port::system.pc.south_bridge.ide.pio           26                       # Cumulative packet size per connected master and slave (bytes)
system.iobus.pkt_size_system.ruby.l1_cntrl2.sequencer.mem-master-port::system.pc.south_bridge.io_apic.pio           12                       # Cumulative packet size per connected master and slave (bytes)
system.iobus.pkt_size_system.ruby.l1_cntrl2.sequencer.mem-master-port::system.pc.com_1.pio           87                       # Cumulative packet size per connected master and slave (bytes)
system.iobus.pkt_size_system.ruby.l1_cntrl2.sequencer.mem-master-port::system.ruby.l1_cntrl1.sequencer.pio-slave-port            4                       # Cumulative packet size per connected master and slave (bytes)
system.iobus.pkt_size_system.ruby.l1_cntrl2.sequencer.mem-master-port::system.ruby.l1_cntrl2.sequencer.pio-slave-port         3644                       # Cumulative packet size per connected master and slave (bytes)
system.iobus.pkt_size_system.ruby.l1_cntrl2.sequencer.mem-master-port::system.ruby.l1_cntrl3.sequencer.pio-slave-port            4                       # Cumulative packet size per connected master and slave (bytes)
system.iobus.pkt_size_system.ruby.l1_cntrl2.sequencer.mem-master-port::total         3777                       # Cumulative packet size per connected master and slave (bytes)
system.iobus.pkt_size_system.ruby.l1_cntrl3.sequencer.mem-master-port::system.pc.south_bridge.ide.pio           26                       # Cumulative packet size per connected master and slave (bytes)
system.iobus.pkt_size_system.ruby.l1_cntrl3.sequencer.mem-master-port::system.pc.south_bridge.io_apic.pio           16                       # Cumulative packet size per connected master and slave (bytes)
system.iobus.pkt_size_system.ruby.l1_cntrl3.sequencer.mem-master-port::system.ruby.l1_cntrl0.sequencer.pio-slave-port            4                       # Cumulative packet size per connected master and slave (bytes)
system.iobus.pkt_size_system.ruby.l1_cntrl3.sequencer.mem-master-port::system.ruby.l1_cntrl1.sequencer.pio-slave-port            4                       # Cumulative packet size per connected master and slave (bytes)
system.iobus.pkt_size_system.ruby.l1_cntrl3.sequencer.mem-master-port::system.ruby.l1_cntrl3.sequencer.pio-slave-port         3648                       # Cumulative packet size per connected master and slave (bytes)
system.iobus.pkt_size_system.ruby.l1_cntrl3.sequencer.mem-master-port::total         3698                       # Cumulative packet size per connected master and slave (bytes)
system.iobus.pkt_size::total                    14932                       # Cumulative packet size per connected master and slave (bytes)
system.iobus.reqLayer2.occupancy               164000                       # Layer occupancy (ticks)
system.iobus.reqLayer2.utilization                0.0                       # Layer utilization (%)
system.iobus.reqLayer8.occupancy                25996                       # Layer occupancy (ticks)
system.iobus.reqLayer8.utilization                0.0                       # Layer utilization (%)
system.iobus.reqLayer12.occupancy              112000                       # Layer occupancy (ticks)
system.iobus.reqLayer12.utilization               0.0                       # Layer utilization (%)
system.iobus.reqLayer17.occupancy             2081480                       # Layer occupancy (ticks)
system.iobus.reqLayer17.utilization               0.0                       # Layer utilization (%)
system.iobus.reqLayer18.occupancy             2291998                       # Layer occupancy (ticks)
system.iobus.reqLayer18.utilization               0.0                       # Layer utilization (%)
system.iobus.reqLayer19.occupancy             2281497                       # Layer occupancy (ticks)
system.iobus.reqLayer19.utilization               0.0                       # Layer utilization (%)
system.iobus.reqLayer20.occupancy             2282493                       # Layer occupancy (ticks)
system.iobus.reqLayer20.utilization               0.0                       # Layer utilization (%)
system.iobus.respLayer0.occupancy               12496                       # Layer occupancy (ticks)
system.iobus.respLayer0.utilization               0.0                       # Layer utilization (%)
system.iobus.respLayer2.occupancy             1399500                       # Layer occupancy (ticks)
system.iobus.respLayer2.utilization               0.0                       # Layer utilization (%)
system.iobus.respLayer4.occupancy             1429000                       # Layer occupancy (ticks)
system.iobus.respLayer4.utilization               0.0                       # Layer utilization (%)
system.iobus.respLayer6.occupancy             1557500                       # Layer occupancy (ticks)
system.iobus.respLayer6.utilization               0.0                       # Layer utilization (%)
system.iobus.respLayer8.occupancy             1409000                       # Layer occupancy (ticks)
system.iobus.respLayer8.utilization               0.0                       # Layer utilization (%)
system.pc.south_bridge.ide.disks.dma_read_full_pages            1                       # Number of full page size DMA reads (not PRD).
system.pc.south_bridge.ide.disks.dma_read_bytes         4096                       # Number of bytes transfered via DMA reads (not PRD).
system.pc.south_bridge.ide.disks.dma_read_txs            1                       # Number of DMA read transactions (not PRD).
system.pc.south_bridge.ide.disks.dma_write_full_pages           45                       # Number of full page size DMA writes.
system.pc.south_bridge.ide.disks.dma_write_bytes       184320                       # Number of bytes transfered via DMA writes.
system.pc.south_bridge.ide.disks.dma_write_txs           45                       # Number of DMA write transactions.
system.ruby.clk_domain.clock                      500                       # Clock period in ticks
system.ruby.outstanding_req_hist_seqr::bucket_size            1                      
system.ruby.outstanding_req_hist_seqr::max_bucket            9                      
system.ruby.outstanding_req_hist_seqr::samples   3589084405                      
system.ruby.outstanding_req_hist_seqr::mean     1.000000                      
system.ruby.outstanding_req_hist_seqr::gmean     1.000000                      
system.ruby.outstanding_req_hist_seqr::stdev     0.000257                      
system.ruby.outstanding_req_hist_seqr    |           0      0.00%      0.00% |  3589084168    100.00%    100.00% |         237      0.00%    100.00% |           0      0.00%    100.00% |           0      0.00%    100.00% |           0      0.00%    100.00% |           0      0.00%    100.00% |           0      0.00%    100.00% |           0      0.00%    100.00% |           0      0.00%    100.00%
system.ruby.outstanding_req_hist_seqr::total   3589084405                      
system.ruby.latency_hist_seqr::bucket_size          256                      
system.ruby.latency_hist_seqr::max_bucket         2559                      
system.ruby.latency_hist_seqr::samples     3589084405                      
system.ruby.latency_hist_seqr::mean          1.018299                      
system.ruby.latency_hist_seqr::gmean         1.003059                      
system.ruby.latency_hist_seqr::stdev         0.650518                      
[...]
system.ruby.L1Cache_Controller.O.Load::total        19345                      
system.ruby.L1Cache_Controller.O.Store   |          42     21.43%     21.43% |          34     17.35%     38.78% |          89     45.41%     84.18% |          31     15.82%    100.00%
system.ruby.L1Cache_Controller.O.Store::total          196                      
system.ruby.L1Cache_Controller.O.L1_Replacement |          71      9.78%      9.78% |         216     29.75%     39.53% |         243     33.47%     73.00% |         196     27.00%    100.00%
system.ruby.L1Cache_Controller.O.L1_Replacement::total          726                      
system.ruby.L1Cache_Controller.O.Fwd_GETX |         162      0.91%      0.91% |        5546     31.17%     32.09% |        3723     20.93%     53.01% |        8359     46.99%    100.00%
system.ruby.L1Cache_Controller.O.Fwd_GETX::total        17790                      
system.ruby.L1Cache_Controller.O.Fwd_GETS |         193      0.77%      0.77% |        3234     12.91%     13.68% |        3026     12.08%     25.76% |       18599     74.24%    100.00%
system.ruby.L1Cache_Controller.O.Fwd_GETS::total        25052                      
system.ruby.L1Cache_Controller.M.Load    |    18136696     97.39%     97.39% |       25306      0.14%     97.53% |      100702      0.54%     98.07% |      359192      1.93%    100.00%
system.ruby.L1Cache_Controller.M.Load::total     18621896                      
system.ruby.L1Cache_Controller.M.Store   |      194322     92.25%     92.25% |        1359      0.65%     92.90% |        5973      2.84%     95.74% |        8983      4.26%    100.00%
system.ruby.L1Cache_Controller.M.Store::total       210637                      
system.ruby.L1Cache_Controller.M.L1_Replacement |      214313     92.31%     92.31% |        2305      0.99%     93.31% |        5981      2.58%     95.88% |        9562      4.12%    100.00%
system.ruby.L1Cache_Controller.M.L1_Replacement::total       232161                      
system.ruby.L1Cache_Controller.M.Fwd_GETX |         122     19.37%     19.37% |          91     14.44%     33.81% |         160     25.40%     59.21% |         257     40.79%    100.00%
system.ruby.L1Cache_Controller.M.Fwd_GETX::total          630                      
system.ruby.L1Cache_Controller.M.Fwd_GETS |         270      1.45%      1.45% |        5686     30.57%     32.02% |        4043     21.73%     53.75% |        8603     46.25%    100.00%
system.ruby.L1Cache_Controller.M.Fwd_GETS::total        18602                      
system.ruby.L1Cache_Controller.M_W.Load  |       92238     73.75%     73.75% |        7309      5.84%     79.59% |       11685      9.34%     88.93% |       13841     11.07%    100.00%
system.ruby.L1Cache_Controller.M_W.Load::total       125073                      
system.ruby.L1Cache_Controller.M_W.Store |       40223     91.56%     91.56% |         531      1.21%     92.76% |        1443      3.28%     96.05% |        1736      3.95%    100.00%
system.ruby.L1Cache_Controller.M_W.Store::total        43933                      
system.ruby.L1Cache_Controller.M_W.L1_Replacement |           5     45.45%     45.45% |           5     45.45%     90.91% |           0      0.00%     90.91% |           1      9.09%    100.00%
system.ruby.L1Cache_Controller.M_W.L1_Replacement::total           11                      
system.ruby.L1Cache_Controller.M_W.Fwd_GETX |          48     81.36%     81.36% |          11     18.64%    100.00% |           0      0.00%    100.00% |           0      0.00%    100.00%
system.ruby.L1Cache_Controller.M_W.Fwd_GETX::total           59                      
system.ruby.L1Cache_Controller.M_W.Fwd_GETS |         126     40.51%     40.51% |          70     22.51%     63.02% |          83     26.69%     89.71% |          32     10.29%    100.00%
system.ruby.L1Cache_Controller.M_W.Fwd_GETS::total          311                      
system.ruby.L1Cache_Controller.M_W.Use_Timeout |      409117     88.56%     88.56% |        9425      2.04%     90.60% |       16128      3.49%     94.09% |       27304      5.91%    100.00%
system.ruby.L1Cache_Controller.M_W.Use_Timeout::total       461974                      
system.ruby.L1Cache_Controller.MM.Load   |   342589374     98.44%     98.44% |      623443      0.18%     98.61% |     1091936      0.31%     98.93% |     3729450      1.07%    100.00%
system.ruby.L1Cache_Controller.MM.Load::total    348034203                      
system.ruby.L1Cache_Controller.MM.Store  |   170308836     97.58%     97.58% |      662324      0.38%     97.96% |     1150763      0.66%     98.62% |     2407473      1.38%    100.00%
system.ruby.L1Cache_Controller.MM.Store::total    174529396                      
system.ruby.L1Cache_Controller.MM.L1_Replacement |     1251244     93.68%     93.68% |        9359      0.70%     94.39% |       31080      2.33%     96.71% |       43909      3.29%    100.00%
system.ruby.L1Cache_Controller.MM.L1_Replacement::total      1335592                      
system.ruby.L1Cache_Controller.MM.Fwd_GETX |        1201     19.94%     19.94% |        1199     19.91%     39.85% |        1353     22.46%     62.31% |        2270     37.69%    100.00%
system.ruby.L1Cache_Controller.MM.Fwd_GETX::total         6023                      
system.ruby.L1Cache_Controller.MM.Fwd_GETS |        5708     35.88%     35.88% |        2940     18.48%     54.36% |        3245     20.40%     74.75% |        4017     25.25%    100.00%
system.ruby.L1Cache_Controller.MM.Fwd_GETS::total        15910                      
system.ruby.L1Cache_Controller.MM.Fwd_DMA |           0      0.00%      0.00% |          17     51.52%     51.52% |           4     12.12%     63.64% |          12     36.36%    100.00%
system.ruby.L1Cache_Controller.MM.Fwd_DMA::total           33                      
system.ruby.L1Cache_Controller.MM_W.Load |       21664     74.38%     74.38% |         719      2.47%     76.85% |        2874      9.87%     86.72% |        3869     13.28%    100.00%
system.ruby.L1Cache_Controller.MM_W.Load::total        29126                      
system.ruby.L1Cache_Controller.MM_W.Store |      813349     77.39%     77.39% |       35406      3.37%     80.76% |      108897     10.36%     91.12% |       93322      8.88%    100.00%
system.ruby.L1Cache_Controller.MM_W.Store::total      1050974                      
system.ruby.L1Cache_Controller.MM_W.Fwd_GETX |           4     25.00%     25.00% |           2     12.50%     37.50% |           2     12.50%     50.00% |           8     50.00%    100.00%
system.ruby.L1Cache_Controller.MM_W.Fwd_GETX::total           16                      
system.ruby.L1Cache_Controller.MM_W.Fwd_GETS |         892     33.56%     33.56% |         835     31.41%     64.97% |         730     27.46%     92.44% |         201      7.56%    100.00%
system.ruby.L1Cache_Controller.MM_W.Fwd_GETS::total         2658                      
system.ruby.L1Cache_Controller.MM_W.Use_Timeout |     1064178     92.78%     92.78% |       11934      1.04%     93.82% |       29817      2.60%     96.42% |       41069      3.58%    100.00%
system.ruby.L1Cache_Controller.MM_W.Use_Timeout::total      1146998                      
system.ruby.L1Cache_Controller.IM.Ack    |        7301     34.56%     34.56% |        4382     20.75%     55.31% |        4752     22.50%     77.81% |        4688     22.19%    100.00%
system.ruby.L1Cache_Controller.IM.Ack::total        21123                      
system.ruby.L1Cache_Controller.IM.Exclusive_Data |     1017850     93.99%     93.99% |        8746      0.81%     94.80% |       20365      1.88%     96.68% |       35958      3.32%    100.00%
system.ruby.L1Cache_Controller.IM.Exclusive_Data::total      1082919                      
system.ruby.L1Cache_Controller.SM.Ack    |       11001     64.99%     64.99% |        2838     16.77%     81.76% |        2064     12.19%     93.96% |        1023      6.04%    100.00%
system.ruby.L1Cache_Controller.SM.Ack::total        16926                      
system.ruby.L1Cache_Controller.SM.Exclusive_Data |        6063     30.39%     30.39% |        2623     13.15%     43.54% |        7921     39.70%     83.24% |        3344     16.76%    100.00%
system.ruby.L1Cache_Controller.SM.Exclusive_Data::total        19951                      
system.ruby.L1Cache_Controller.OM.Own_GETX |          42     21.54%     21.54% |          34     17.44%     38.97% |          88     45.13%     84.10% |          31     15.90%    100.00%
system.ruby.L1Cache_Controller.OM.Own_GETX::total          195                      
system.ruby.L1Cache_Controller.OM.Fwd_GETX |           0      0.00%      0.00% |           0      0.00%      0.00% |           1    100.00%    100.00% |           0      0.00%    100.00%
system.ruby.L1Cache_Controller.OM.Fwd_GETX::total            1                      
system.ruby.L1Cache_Controller.OM.Ack    |        1924     51.71%     51.71% |         229      6.15%     57.86% |        1079     29.00%     86.86% |         489     13.14%    100.00%
system.ruby.L1Cache_Controller.OM.Ack::total         3721                      
system.ruby.L1Cache_Controller.OM.All_acks |     1023955     92.83%     92.83% |       11403      1.03%     93.86% |       28374      2.57%     96.43% |       39333      3.57%    100.00%
system.ruby.L1Cache_Controller.OM.All_acks::total      1103065                      
system.ruby.L1Cache_Controller.IS.Data   |     2131932     89.18%     89.18% |       57486      2.40%     91.59% |      111539      4.67%     96.25% |       89563      3.75%    100.00%
system.ruby.L1Cache_Controller.IS.Data::total      2390520                      
system.ruby.L1Cache_Controller.IS.Exclusive_Data |      449340     88.82%     88.82% |        9956      1.97%     90.79% |       17571      3.47%     94.26% |       29040      5.74%    100.00%
system.ruby.L1Cache_Controller.IS.Exclusive_Data::total       505907                      
system.ruby.L1Cache_Controller.SI.Load   |           0      0.00%      0.00% |           0      0.00%      0.00% |         178     59.93%     59.93% |         119     40.07%    100.00%
system.ruby.L1Cache_Controller.SI.Load::total          297                      
system.ruby.L1Cache_Controller.SI.Ifetch |           0      0.00%      0.00% |           0      0.00%      0.00% |           4    100.00%    100.00% |           0      0.00%    100.00%
system.ruby.L1Cache_Controller.SI.Ifetch::total            4                      
system.ruby.L1Cache_Controller.SI.Writeback_Ack |     2118137     91.27%     91.27% |       45440      1.96%     93.23% |       82578      3.56%     96.78% |       74653      3.22%    100.00%
system.ruby.L1Cache_Controller.SI.Writeback_Ack::total      2320808                      
system.ruby.L1Cache_Controller.SI.Writeback_Ack_Data |        7145     22.17%     22.17% |        3472     10.77%     32.94% |       13366     41.47%     74.41% |        8250     25.59%    100.00%
system.ruby.L1Cache_Controller.SI.Writeback_Ack_Data::total        32233                      
system.ruby.L1Cache_Controller.OI.Writeback_Ack_Data |          71      9.78%      9.78% |         216     29.75%     39.53% |         243     33.47%     73.00% |         196     27.00%    100.00%
system.ruby.L1Cache_Controller.OI.Writeback_Ack_Data::total          726                      
system.ruby.L1Cache_Controller.MI.Load   |           5     19.23%     19.23% |          15     57.69%     76.92% |           0      0.00%     76.92% |           6     23.08%    100.00%
system.ruby.L1Cache_Controller.MI.Load::total           26                      
system.ruby.L1Cache_Controller.MI.Writeback_Ack_Data |     1465557     93.48%     93.48% |       11664      0.74%     94.23% |       37061      2.36%     96.59% |       53471      3.41%    100.00%
system.ruby.L1Cache_Controller.MI.Writeback_Ack_Data::total      1567753                      
system.ruby.L2Cache_Controller.L1_GETS        2897240      0.00%      0.00%
system.ruby.L2Cache_Controller.L1_GETX        1103077      0.00%      0.00%
system.ruby.L2Cache_Controller.L1_PUTO            726      0.00%      0.00%
system.ruby.L2Cache_Controller.L1_PUTX        1567753      0.00%      0.00%
system.ruby.L2Cache_Controller.L1_PUTS_only      1906472      0.00%      0.00%
system.ruby.L2Cache_Controller.L1_PUTS         446574      0.00%      0.00%
system.ruby.L2Cache_Controller.Fwd_GETX            45      0.00%      0.00%
system.ruby.L2Cache_Controller.Fwd_DMA             33      0.00%      0.00%
system.ruby.L2Cache_Controller.Inv                 12      0.00%      0.00%
system.ruby.L2Cache_Controller.All_Acks         43674      0.00%      0.00%
system.ruby.L2Cache_Controller.Data             83791      0.00%      0.00%
system.ruby.L2Cache_Controller.L1_WBCLEANDATA        32233      0.00%      0.00%
system.ruby.L2Cache_Controller.L1_WBDIRTYDATA      1568479      0.00%      0.00%
system.ruby.L2Cache_Controller.Writeback_Ack        36594      0.00%      0.00%
system.ruby.L2Cache_Controller.Unblock        4711328      0.00%      0.00%
system.ruby.L2Cache_Controller.Exclusive_Unblock      1608972      0.00%      0.00%
system.ruby.L2Cache_Controller.DmaAck              33      0.00%      0.00%
system.ruby.L2Cache_Controller.L2_Replacement        61870      0.00%      0.00%
system.ruby.L2Cache_Controller.NP.L1_GETS        40117      0.00%      0.00%
system.ruby.L2Cache_Controller.NP.L1_GETX        31044      0.00%      0.00%
system.ruby.L2Cache_Controller.ILS.L1_GETS         3663      0.00%      0.00%
system.ruby.L2Cache_Controller.ILS.L1_GETX         9355      0.00%      0.00%
system.ruby.L2Cache_Controller.ILS.L1_PUTS_only        29756      0.00%      0.00%
system.ruby.L2Cache_Controller.ILS.L1_PUTS         2477      0.00%      0.00%
system.ruby.L2Cache_Controller.ILX.L1_GETS        34512      0.00%      0.00%
system.ruby.L2Cache_Controller.ILX.L1_GETX         6653      0.00%      0.00%
system.ruby.L2Cache_Controller.ILX.L1_PUTX      1567753      0.00%      0.00%
system.ruby.L2Cache_Controller.ILX.Fwd_DMA           33      0.00%      0.00%
system.ruby.L2Cache_Controller.ILOX.L1_GETS        13035      0.00%      0.00%
system.ruby.L2Cache_Controller.ILOX.L1_GETX         1841      0.00%      0.00%
system.ruby.L2Cache_Controller.ILOX.L1_PUTO          320      0.00%      0.00%
system.ruby.L2Cache_Controller.ILOSX.L1_GETS        12017      0.00%      0.00%
system.ruby.L2Cache_Controller.ILOSX.L1_GETX        16145      0.00%      0.00%
system.ruby.L2Cache_Controller.ILOSX.L1_PUTO          406      0.00%      0.00%
system.ruby.L2Cache_Controller.ILOSX.L1_PUTS_only        15179      0.00%      0.00%
system.ruby.L2Cache_Controller.ILOSX.L1_PUTS         2935      0.00%      0.00%
system.ruby.L2Cache_Controller.S.L1_GETS      1862042      0.00%      0.00%
system.ruby.L2Cache_Controller.S.L1_GETX         1836      0.00%      0.00%
system.ruby.L2Cache_Controller.S.Inv               12      0.00%      0.00%
system.ruby.L2Cache_Controller.S.L2_Replacement        23569      0.00%      0.00%
system.ruby.L2Cache_Controller.OLSX.L1_GETS        10246      0.00%      0.00%
system.ruby.L2Cache_Controller.OLSX.L1_GETX           97      0.00%      0.00%
system.ruby.L2Cache_Controller.OLSX.L1_PUTS_only          254      0.00%      0.00%
system.ruby.L2Cache_Controller.OLSX.L1_PUTS        10171      0.00%      0.00%
system.ruby.L2Cache_Controller.OLSX.L2_Replacement           60      0.00%      0.00%
system.ruby.L2Cache_Controller.SLS.L1_GETS       430798      0.00%      0.00%
system.ruby.L2Cache_Controller.SLS.L1_GETX         1439      0.00%      0.00%
system.ruby.L2Cache_Controller.SLS.L1_PUTS_only      1861281      0.00%      0.00%
system.ruby.L2Cache_Controller.SLS.L1_PUTS       430988      0.00%      0.00%
system.ruby.L2Cache_Controller.SLS.L2_Replacement         1707      0.00%      0.00%
system.ruby.L2Cache_Controller.M.L1_GETS       489997      0.00%      0.00%
system.ruby.L2Cache_Controller.M.L1_GETX      1034655      0.00%      0.00%
system.ruby.L2Cache_Controller.M.Fwd_GETX           45      0.00%      0.00%
system.ruby.L2Cache_Controller.M.L2_Replacement        36534      0.00%      0.00%
system.ruby.L2Cache_Controller.ILOXW.L1_WBDIRTYDATA          320      0.00%      0.00%
system.ruby.L2Cache_Controller.ILOXW.Unblock        15179      0.00%      0.00%
system.ruby.L2Cache_Controller.ILOSXW.L1_PUTS_only            1      0.00%      0.00%
system.ruby.L2Cache_Controller.ILOSXW.L1_WBDIRTYDATA          406      0.00%      0.00%
system.ruby.L2Cache_Controller.ILOSXW.Unblock         2935      0.00%      0.00%
system.ruby.L2Cache_Controller.SLSW.L1_PUTS            1      0.00%      0.00%
system.ruby.L2Cache_Controller.SLSW.Unblock       430988      0.00%      0.00%
system.ruby.L2Cache_Controller.ILSW.L1_WBCLEANDATA         2477      0.00%      0.00%
system.ruby.L2Cache_Controller.IW.L1_WBCLEANDATA        29756      0.00%      0.00%
system.ruby.L2Cache_Controller.SW.L1_GETS            2      0.00%      0.00%
system.ruby.L2Cache_Controller.SW.Unblock      1861281      0.00%      0.00%
system.ruby.L2Cache_Controller.OXW.Unblock          254      0.00%      0.00%
system.ruby.L2Cache_Controller.OLSXW.Unblock        10171      0.00%      0.00%
system.ruby.L2Cache_Controller.ILXW.L1_WBDIRTYDATA      1567753      0.00%      0.00%
system.ruby.L2Cache_Controller.IFLS.L1_GETS            3      0.00%      0.00%
system.ruby.L2Cache_Controller.IFLS.Unblock         3663      0.00%      0.00%
system.ruby.L2Cache_Controller.IFLOX.Unblock        13035      0.00%      0.00%
system.ruby.L2Cache_Controller.IFLOX.Exclusive_Unblock           97      0.00%      0.00%
system.ruby.L2Cache_Controller.IFLOXX.L1_GETS          157      0.00%      0.00%
system.ruby.L2Cache_Controller.IFLOXX.L1_GETX            9      0.00%      0.00%
system.ruby.L2Cache_Controller.IFLOXX.Unblock        18602      0.00%      0.00%
system.ruby.L2Cache_Controller.IFLOXX.Exclusive_Unblock        24404      0.00%      0.00%
system.ruby.L2Cache_Controller.IFLOSX.L1_GETS            1      0.00%      0.00%
system.ruby.L2Cache_Controller.IFLOSX.Unblock        12017      0.00%      0.00%
system.ruby.L2Cache_Controller.IFLXO.L1_GETS           87      0.00%      0.00%
system.ruby.L2Cache_Controller.IFLXO.L1_GETX            3      0.00%      0.00%
system.ruby.L2Cache_Controller.IFLXO.Exclusive_Unblock        16145      0.00%      0.00%
system.ruby.L2Cache_Controller.IGS.L1_GETS          558      0.00%      0.00%
system.ruby.L2Cache_Controller.IGS.Data         40117      0.00%      0.00%
system.ruby.L2Cache_Controller.IGS.Unblock        40117      0.00%      0.00%
system.ruby.L2Cache_Controller.IGM.Data         32880      0.00%      0.00%
system.ruby.L2Cache_Controller.IGMLS.Data        10794      0.00%      0.00%
system.ruby.L2Cache_Controller.IGMO.All_Acks        43674      0.00%      0.00%
system.ruby.L2Cache_Controller.IGMO.Exclusive_Unblock        43674      0.00%      0.00%
system.ruby.L2Cache_Controller.MM.Exclusive_Unblock      1034655      0.00%      0.00%
system.ruby.L2Cache_Controller.SS.Unblock      1862042      0.00%      0.00%
system.ruby.L2Cache_Controller.OO.Exclusive_Unblock       489997      0.00%      0.00%
system.ruby.L2Cache_Controller.OLSXS.Unblock        10246      0.00%      0.00%
system.ruby.L2Cache_Controller.SLSS.L1_GETS            5      0.00%      0.00%
system.ruby.L2Cache_Controller.SLSS.L1_PUTS_only            1      0.00%      0.00%
system.ruby.L2Cache_Controller.SLSS.L1_PUTS            2      0.00%      0.00%
system.ruby.L2Cache_Controller.SLSS.Unblock       430798      0.00%      0.00%
system.ruby.L2Cache_Controller.MI.Writeback_Ack        36534      0.00%      0.00%
system.ruby.L2Cache_Controller.OLSI.Writeback_Ack           60      0.00%      0.00%
system.ruby.L2Cache_Controller.ILXD.DmaAck           33      0.00%      0.00%

---------- End Simulation Statistics   ----------
