
---------- Begin Simulation Statistics ----------
sim_seconds                                  2.951779                       # Number of seconds simulated
sim_ticks                                2951779101500                       # Number of ticks simulated
final_tick                               54818051302501                       # Number of ticks from beginning of simulation (restored from checkpoints and never reset)
sim_freq                                 1000000000000                       # Frequency of simulated ticks
host_inst_rate                                 128636                       # Simulator instruction rate (inst/s)
host_op_rate                                   215594                       # Simulator op (including micro ops) rate (op/s)
host_tick_rate                              247609000                       # Simulator tick rate (ticks/s)
host_mem_usage                                1837892                       # Number of bytes of host memory used
host_seconds                                 11921.13                       # Real time elapsed on the host
sim_insts                                  1533488639                       # Number of instructions simulated
sim_ops                                    2570120557                       # Number of ops (including micro ops) simulated
system.voltage_domain.voltage                       1                       # Voltage in Volts
system.clk_domain.clock                          1000                       # Clock period in ticks
system.mem_ctrls.bytes_read::ruby.dir_cntrl0     13228928                       # Number of bytes read from this memory
system.mem_ctrls.bytes_read::total           13228928                       # Number of bytes read from this memory
system.mem_ctrls.bytes_written::ruby.dir_cntrl0      1694400                       # Number of bytes written to this memory
system.mem_ctrls.bytes_written::total         1694400                       # Number of bytes written to this memory
system.mem_ctrls.num_reads::ruby.dir_cntrl0       206702                       # Number of read requests responded to by this memory
system.mem_ctrls.num_reads::total              206702                       # Number of read requests responded to by this memory
system.mem_ctrls.num_writes::ruby.dir_cntrl0        26475                       # Number of write requests responded to by this memory
system.mem_ctrls.num_writes::total              26475                       # Number of write requests responded to by this memory
system.mem_ctrls.bw_read::ruby.dir_cntrl0      4481680                       # Total read bandwidth from this memory (bytes/s)
system.mem_ctrls.bw_read::total               4481680                       # Total read bandwidth from this memory (bytes/s)
system.mem_ctrls.bw_write::ruby.dir_cntrl0       574027                       # Write bandwidth from this memory (bytes/s)
system.mem_ctrls.bw_write::total               574027                       # Write bandwidth from this memory (bytes/s)
system.mem_ctrls.bw_total::ruby.dir_cntrl0      5055706                       # Total bandwidth to/from this memory (bytes/s)
system.mem_ctrls.bw_total::total              5055706                       # Total bandwidth to/from this memory (bytes/s)
system.mem_ctrls.readReqs                      206702                       # Number of read requests accepted
system.mem_ctrls.writeReqs                      26475                       # Number of write requests accepted
system.mem_ctrls.readBursts                    206702                       # Number of DRAM read bursts, including those serviced by the write queue
system.mem_ctrls.writeBursts                    26475                       # Number of DRAM write bursts, including those merged in the write queue
system.mem_ctrls.bytesReadDRAM               13101312                       # Total number of bytes read from DRAM
system.mem_ctrls.bytesReadWrQ                  127616                       # Total number of bytes read from write queue
system.mem_ctrls.bytesWritten                 1667328                       # Total number of bytes written to DRAM
system.mem_ctrls.bytesReadSys                13228928                       # Total read bytes from the system interface side
system.mem_ctrls.bytesWrittenSys              1694400                       # Total written bytes from the system interface side
system.mem_ctrls.servicedByWrQ                   1994                       # Number of DRAM read bursts serviced by the write queue
system.mem_ctrls.mergedWrBursts                   412                       # Number of DRAM write bursts merged with an existing one
system.mem_ctrls.neitherReadNorWriteReqs            0                       # Number of requests that are neither read nor write
system.mem_ctrls.perBankRdBursts::0             17589                       # Per bank write bursts
system.mem_ctrls.perBankRdBursts::1             12836                       # Per bank write bursts
system.mem_ctrls.perBankRdBursts::2             13013                       # Per bank write bursts
system.mem_ctrls.perBankRdBursts::3             11598                       # Per bank write bursts
system.mem_ctrls.perBankRdBursts::4             11413                       # Per bank write bursts
system.mem_ctrls.perBankRdBursts::5             11820                       # Per bank write bursts
system.mem_ctrls.perBankRdBursts::6             13645                       # Per bank write bursts
system.mem_ctrls.perBankRdBursts::7             13359                       # Per bank write bursts
system.mem_ctrls.perBankRdBursts::8             13531                       # Per bank write bursts
system.mem_ctrls.perBankRdBursts::9             12576                       # Per bank write bursts
system.mem_ctrls.perBankRdBursts::10            12095                       # Per bank write bursts
system.mem_ctrls.perBankRdBursts::11            10845                       # Per bank write bursts
system.mem_ctrls.perBankRdBursts::12            10584                       # Per bank write bursts
system.mem_ctrls.perBankRdBursts::13            12669                       # Per bank write bursts
system.mem_ctrls.perBankRdBursts::14            14609                       # Per bank write bursts
system.mem_ctrls.perBankRdBursts::15            12526                       # Per bank write bursts
system.mem_ctrls.perBankWrBursts::0              2046                       # Per bank write bursts
system.mem_ctrls.perBankWrBursts::1              2143                       # Per bank write bursts
system.mem_ctrls.perBankWrBursts::2              1720                       # Per bank write bursts
system.mem_ctrls.perBankWrBursts::3              1079                       # Per bank write bursts
system.mem_ctrls.perBankWrBursts::4              1564                       # Per bank write bursts
system.mem_ctrls.perBankWrBursts::5              1565                       # Per bank write bursts
system.mem_ctrls.perBankWrBursts::6              1951                       # Per bank write bursts
system.mem_ctrls.perBankWrBursts::7              1571                       # Per bank write bursts
system.mem_ctrls.perBankWrBursts::8              1881                       # Per bank write bursts
system.mem_ctrls.perBankWrBursts::9              1687                       # Per bank write bursts
system.mem_ctrls.perBankWrBursts::10             1678                       # Per bank write bursts
system.mem_ctrls.perBankWrBursts::11             1438                       # Per bank write bursts
system.mem_ctrls.perBankWrBursts::12             1387                       # Per bank write bursts
system.mem_ctrls.perBankWrBursts::13             1191                       # Per bank write bursts
system.mem_ctrls.perBankWrBursts::14             1749                       # Per bank write bursts
system.mem_ctrls.perBankWrBursts::15             1402                       # Per bank write bursts
system.mem_ctrls.numRdRetry                         0                       # Number of times read queue was full causing retry
system.mem_ctrls.numWrRetry                         0                       # Number of times write queue was full causing retry
system.mem_ctrls.totGap                  2951779227000                       # Total gap between requests
system.mem_ctrls.readPktSize::0                     0                       # Read request sizes (log2)
system.mem_ctrls.readPktSize::1                     0                       # Read request sizes (log2)
system.mem_ctrls.readPktSize::2                     0                       # Read request sizes (log2)
system.mem_ctrls.readPktSize::3                     0                       # Read request sizes (log2)
system.mem_ctrls.readPktSize::4                     0                       # Read request sizes (log2)
system.mem_ctrls.readPktSize::5                     0                       # Read request sizes (log2)
system.mem_ctrls.readPktSize::6                206702                       # Read request sizes (log2)
system.mem_ctrls.writePktSize::0                    0                       # Write request sizes (log2)
system.mem_ctrls.writePktSize::1                    0                       # Write request sizes (log2)
system.mem_ctrls.writePktSize::2                    0                       # Write request sizes (log2)
system.mem_ctrls.writePktSize::3                    0                       # Write request sizes (log2)
system.mem_ctrls.writePktSize::4                    0                       # Write request sizes (log2)
system.mem_ctrls.writePktSize::5                    0                       # Write request sizes (log2)
system.mem_ctrls.writePktSize::6                26475                       # Write request sizes (log2)
system.mem_ctrls.rdQLenPdf::0                  203652                       # What read queue length does an incoming req see
system.mem_ctrls.rdQLenPdf::1                    1037                       # What read queue length does an incoming req see
system.mem_ctrls.rdQLenPdf::2                      19                       # What read queue length does an incoming req see
system.mem_ctrls.rdQLenPdf::3                       0                       # What read queue length does an incoming req see
system.mem_ctrls.rdQLenPdf::4                       0                       # What read queue length does an incoming req see
system.mem_ctrls.rdQLenPdf::5                       0                       # What read queue length does an incoming req see
system.mem_ctrls.rdQLenPdf::6                       0                       # What read queue length does an incoming req see
system.mem_ctrls.rdQLenPdf::7                       0                       # What read queue length does an incoming req see
system.mem_ctrls.rdQLenPdf::8                       0                       # What read queue length does an incoming req see
system.mem_ctrls.rdQLenPdf::9                       0                       # What read queue length does an incoming req see
system.mem_ctrls.rdQLenPdf::10                      0                       # What read queue length does an incoming req see
system.mem_ctrls.rdQLenPdf::11                      0                       # What read queue length does an incoming req see
system.mem_ctrls.rdQLenPdf::12                      0                       # What read queue length does an incoming req see
system.mem_ctrls.rdQLenPdf::13                      0                       # What read queue length does an incoming req see
system.mem_ctrls.rdQLenPdf::14                      0                       # What read queue length does an incoming req see
system.mem_ctrls.rdQLenPdf::15                      0                       # What read queue length does an incoming req see
system.mem_ctrls.rdQLenPdf::16                      0                       # What read queue length does an incoming req see
system.mem_ctrls.rdQLenPdf::17                      0                       # What read queue length does an incoming req see
system.mem_ctrls.rdQLenPdf::18                      0                       # What read queue length does an incoming req see
system.mem_ctrls.rdQLenPdf::19                      0                       # What read queue length does an incoming req see
system.mem_ctrls.rdQLenPdf::20                      0                       # What read queue length does an incoming req see
system.mem_ctrls.rdQLenPdf::21                      0                       # What read queue length does an incoming req see
system.mem_ctrls.rdQLenPdf::22                      0                       # What read queue length does an incoming req see
system.mem_ctrls.rdQLenPdf::23                      0                       # What read queue length does an incoming req see
system.mem_ctrls.rdQLenPdf::24                      0                       # What read queue length does an incoming req see
system.mem_ctrls.rdQLenPdf::25                      0                       # What read queue length does an incoming req see
system.mem_ctrls.rdQLenPdf::26                      0                       # What read queue length does an incoming req see
system.mem_ctrls.rdQLenPdf::27                      0                       # What read queue length does an incoming req see
system.mem_ctrls.rdQLenPdf::28                      0                       # What read queue length does an incoming req see
system.mem_ctrls.rdQLenPdf::29                      0                       # What read queue length does an incoming req see
system.mem_ctrls.rdQLenPdf::30                      0                       # What read queue length does an incoming req see
system.mem_ctrls.rdQLenPdf::31                      0                       # What read queue length does an incoming req see
system.mem_ctrls.wrQLenPdf::0                       0                       # What write queue length does an incoming req see
system.mem_ctrls.wrQLenPdf::1                       0                       # What write queue length does an incoming req see
system.mem_ctrls.wrQLenPdf::2                       0                       # What write queue length does an incoming req see
system.mem_ctrls.wrQLenPdf::3                       0                       # What write queue length does an incoming req see
system.mem_ctrls.wrQLenPdf::4                       0                       # What write queue length does an incoming req see
system.mem_ctrls.wrQLenPdf::5                       0                       # What write queue length does an incoming req see
system.mem_ctrls.wrQLenPdf::6                       0                       # What write queue length does an incoming req see
system.mem_ctrls.wrQLenPdf::7                       0                       # What write queue length does an incoming req see
system.mem_ctrls.wrQLenPdf::8                       0                       # What write queue length does an incoming req see
system.mem_ctrls.wrQLenPdf::9                       0                       # What write queue length does an incoming req see
system.mem_ctrls.wrQLenPdf::10                      0                       # What write queue length does an incoming req see
system.mem_ctrls.wrQLenPdf::11                      0                       # What write queue length does an incoming req see
system.mem_ctrls.wrQLenPdf::12                      0                       # What write queue length does an incoming req see
system.mem_ctrls.wrQLenPdf::13                      0                       # What write queue length does an incoming req see
system.mem_ctrls.wrQLenPdf::14                      0                       # What write queue length does an incoming req see
system.mem_ctrls.wrQLenPdf::15                    345                       # What write queue length does an incoming req see
system.mem_ctrls.wrQLenPdf::16                    412                       # What write queue length does an incoming req see
system.mem_ctrls.wrQLenPdf::17                   1525                       # What write queue length does an incoming req see
system.mem_ctrls.wrQLenPdf::18                   1590                       # What write queue length does an incoming req see
system.mem_ctrls.wrQLenPdf::19                   1569                       # What write queue length does an incoming req see
system.mem_ctrls.wrQLenPdf::20                   1618                       # What write queue length does an incoming req see
system.mem_ctrls.wrQLenPdf::21                   1603                       # What write queue length does an incoming req see
system.mem_ctrls.wrQLenPdf::22                   1574                       # What write queue length does an incoming req see
system.mem_ctrls.wrQLenPdf::23                   1630                       # What write queue length does an incoming req see
system.mem_ctrls.wrQLenPdf::24                   1614                       # What write queue length does an incoming req see
system.mem_ctrls.wrQLenPdf::25                   1568                       # What write queue length does an incoming req see
system.mem_ctrls.wrQLenPdf::26                   1577                       # What write queue length does an incoming req see
system.mem_ctrls.wrQLenPdf::27                   1570                       # What write queue length does an incoming req see
system.mem_ctrls.wrQLenPdf::28                   1584                       # What write queue length does an incoming req see
system.mem_ctrls.wrQLenPdf::29                   1559                       # What write queue length does an incoming req see
system.mem_ctrls.wrQLenPdf::30                   1557                       # What write queue length does an incoming req see
system.mem_ctrls.wrQLenPdf::31                   1557                       # What write queue length does an incoming req see
system.mem_ctrls.wrQLenPdf::32                   1548                       # What write queue length does an incoming req see
system.mem_ctrls.wrQLenPdf::33                     10                       # What write queue length does an incoming req see
system.mem_ctrls.wrQLenPdf::34                      9                       # What write queue length does an incoming req see
system.mem_ctrls.wrQLenPdf::35                     10                       # What write queue length does an incoming req see
system.mem_ctrls.wrQLenPdf::36                      6                       # What write queue length does an incoming req see
system.mem_ctrls.wrQLenPdf::37                      8                       # What write queue length does an incoming req see
system.mem_ctrls.wrQLenPdf::38                      7                       # What write queue length does an incoming req see
system.mem_ctrls.wrQLenPdf::39                      5                       # What write queue length does an incoming req see
system.mem_ctrls.wrQLenPdf::40                      5                       # What write queue length does an incoming req see
system.mem_ctrls.wrQLenPdf::41                      3                       # What write queue length does an incoming req see
system.mem_ctrls.wrQLenPdf::42                      0                       # What write queue length does an incoming req see
system.mem_ctrls.wrQLenPdf::43                      0                       # What write queue length does an incoming req see
system.mem_ctrls.wrQLenPdf::44                      0                       # What write queue length does an incoming req see
system.mem_ctrls.wrQLenPdf::45                      0                       # What write queue length does an incoming req see
system.mem_ctrls.wrQLenPdf::46                      0                       # What write queue length does an incoming req see
system.mem_ctrls.wrQLenPdf::47                      0                       # What write queue length does an incoming req see
system.mem_ctrls.wrQLenPdf::48                      0                       # What write queue length does an incoming req see
system.mem_ctrls.wrQLenPdf::49                      0                       # What write queue length does an incoming req see
system.mem_ctrls.wrQLenPdf::50                      0                       # What write queue length does an incoming req see
system.mem_ctrls.wrQLenPdf::51                      0                       # What write queue length does an incoming req see
system.mem_ctrls.wrQLenPdf::52                      0                       # What write queue length does an incoming req see
system.mem_ctrls.wrQLenPdf::53                      0                       # What write queue length does an incoming req see
system.mem_ctrls.wrQLenPdf::54                      0                       # What write queue length does an incoming req see
system.mem_ctrls.wrQLenPdf::55                      0                       # What write queue length does an incoming req see
system.mem_ctrls.wrQLenPdf::56                      0                       # What write queue length does an incoming req see
system.mem_ctrls.wrQLenPdf::57                      0                       # What write queue length does an incoming req see
system.mem_ctrls.wrQLenPdf::58                      0                       # What write queue length does an incoming req see
system.mem_ctrls.wrQLenPdf::59                      0                       # What write queue length does an incoming req see
system.mem_ctrls.wrQLenPdf::60                      0                       # What write queue length does an incoming req see
system.mem_ctrls.wrQLenPdf::61                      0                       # What write queue length does an incoming req see
system.mem_ctrls.wrQLenPdf::62                      0                       # What write queue length does an incoming req see
system.mem_ctrls.wrQLenPdf::63                      0                       # What write queue length does an incoming req see
system.mem_ctrls.bytesPerActivate::samples        75717                       # Bytes accessed per row activation
system.mem_ctrls.bytesPerActivate::mean    195.051362                       # Bytes accessed per row activation
system.mem_ctrls.bytesPerActivate::gmean   114.184263                       # Bytes accessed per row activation
system.mem_ctrls.bytesPerActivate::stdev   274.167534                       # Bytes accessed per row activation
system.mem_ctrls.bytesPerActivate::0-127        45636     60.27%     60.27% # Bytes accessed per row activation
system.mem_ctrls.bytesPerActivate::128-255        16374     21.63%     81.90% # Bytes accessed per row activation
system.mem_ctrls.bytesPerActivate::256-383         3834      5.06%     86.96% # Bytes accessed per row activation
system.mem_ctrls.bytesPerActivate::384-511         1581      2.09%     89.05% # Bytes accessed per row activation
system.mem_ctrls.bytesPerActivate::512-639          892      1.18%     90.23% # Bytes accessed per row activation
system.mem_ctrls.bytesPerActivate::640-767          526      0.69%     90.92% # Bytes accessed per row activation
system.mem_ctrls.bytesPerActivate::768-895          471      0.62%     91.54% # Bytes accessed per row activation
system.mem_ctrls.bytesPerActivate::896-1023          333      0.44%     91.98% # Bytes accessed per row activation
system.mem_ctrls.bytesPerActivate::1024-1151         6070      8.02%    100.00% # Bytes accessed per row activation
system.mem_ctrls.bytesPerActivate::total        75717                       # Bytes accessed per row activation
system.mem_ctrls.rdPerTurnAround::samples         1543                       # Reads before turning the bus around for writes
system.mem_ctrls.rdPerTurnAround::mean     132.671419                       # Reads before turning the bus around for writes
system.mem_ctrls.rdPerTurnAround::stdev    390.112542                       # Reads before turning the bus around for writes
system.mem_ctrls.rdPerTurnAround::0-255          1467     95.07%     95.07% # Reads before turning the bus around for writes
system.mem_ctrls.rdPerTurnAround::256-511           32      2.07%     97.15% # Reads before turning the bus around for writes
system.mem_ctrls.rdPerTurnAround::512-767            6      0.39%     97.54% # Reads before turning the bus around for writes
system.mem_ctrls.rdPerTurnAround::1024-1279            1      0.06%     97.60% # Reads before turning the bus around for writes
system.mem_ctrls.rdPerTurnAround::1536-1791            4      0.26%     97.86% # Reads before turning the bus around for writes
system.mem_ctrls.rdPerTurnAround::1792-2047            2      0.13%     97.99% # Reads before turning the bus around for writes
system.mem_ctrls.rdPerTurnAround::2048-2303           22      1.43%     99.42% # Reads before turning the bus around for writes
system.mem_ctrls.rdPerTurnAround::2304-2559            1      0.06%     99.48% # Reads before turning the bus around for writes
system.mem_ctrls.rdPerTurnAround::2816-3071            1      0.06%     99.55% # Reads before turning the bus around for writes
system.mem_ctrls.rdPerTurnAround::3840-4095            1      0.06%     99.61% # Reads before turning the bus around for writes
system.mem_ctrls.rdPerTurnAround::4096-4351            6      0.39%    100.00% # Reads before turning the bus around for writes
system.mem_ctrls.rdPerTurnAround::total          1543                       # Reads before turning the bus around for writes
system.mem_ctrls.wrPerTurnAround::samples         1543                       # Writes before turning the bus around for reads
system.mem_ctrls.wrPerTurnAround::mean      16.883992                       # Writes before turning the bus around for reads
system.mem_ctrls.wrPerTurnAround::gmean     16.769117                       # Writes before turning the bus around for reads
system.mem_ctrls.wrPerTurnAround::stdev      2.278051                       # Writes before turning the bus around for reads
system.mem_ctrls.wrPerTurnAround::16             1167     75.63%     75.63% # Writes before turning the bus around for reads
system.mem_ctrls.wrPerTurnAround::17               24      1.56%     77.19% # Writes before turning the bus around for reads
system.mem_ctrls.wrPerTurnAround::18              240     15.55%     92.74% # Writes before turning the bus around for reads
system.mem_ctrls.wrPerTurnAround::19                4      0.26%     93.00% # Writes before turning the bus around for reads
system.mem_ctrls.wrPerTurnAround::20                1      0.06%     93.07% # Writes before turning the bus around for reads
system.mem_ctrls.wrPerTurnAround::21               37      2.40%     95.46% # Writes before turning the bus around for reads
system.mem_ctrls.wrPerTurnAround::22               12      0.78%     96.24% # Writes before turning the bus around for reads
system.mem_ctrls.wrPerTurnAround::23                3      0.19%     96.44% # Writes before turning the bus around for reads
system.mem_ctrls.wrPerTurnAround::24               27      1.75%     98.19% # Writes before turning the bus around for reads
system.mem_ctrls.wrPerTurnAround::25                6      0.39%     98.57% # Writes before turning the bus around for reads
system.mem_ctrls.wrPerTurnAround::26                1      0.06%     98.64% # Writes before turning the bus around for reads
system.mem_ctrls.wrPerTurnAround::27                1      0.06%     98.70% # Writes before turning the bus around for reads
system.mem_ctrls.wrPerTurnAround::28               16      1.04%     99.74% # Writes before turning the bus around for reads
system.mem_ctrls.wrPerTurnAround::30                2      0.13%     99.87% # Writes before turning the bus around for reads
system.mem_ctrls.wrPerTurnAround::40                1      0.06%     99.94% # Writes before turning the bus around for reads
system.mem_ctrls.wrPerTurnAround::47                1      0.06%    100.00% # Writes before turning the bus around for reads
system.mem_ctrls.wrPerTurnAround::total          1543                       # Writes before turning the bus around for reads
system.mem_ctrls.totQLat                   1673299992                       # Total ticks spent queuing
system.mem_ctrls.totMemAccLat              5511574992                       # Total ticks spent from burst creation until serviced by the DRAM
system.mem_ctrls.totBusLat                 1023540000                       # Total ticks spent in databus transfers
system.mem_ctrls.avgQLat                      8174.08                       # Average queueing delay per DRAM burst
system.mem_ctrls.avgBusLat                    5000.00                       # Average bus latency per DRAM burst
system.mem_ctrls.avgMemAccLat                26924.08                       # Average memory access latency per DRAM burst
system.mem_ctrls.avgRdBW                         4.44                       # Average DRAM read bandwidth in MiByte/s
system.mem_ctrls.avgWrBW                         0.56                       # Average achieved write bandwidth in MiByte/s
system.mem_ctrls.avgRdBWSys                      4.48                       # Average system read bandwidth in MiByte/s
system.mem_ctrls.avgWrBWSys                      0.57                       # Average system write bandwidth in MiByte/s
system.mem_ctrls.peakBW                      12800.00                       # Theoretical peak bandwidth in MiByte/s
system.mem_ctrls.busUtil                         0.04                       # Data bus utilization in percentage
system.mem_ctrls.busUtilRead                     0.03                       # Data bus utilization in percentage for reads
system.mem_ctrls.busUtilWrite                    0.00                       # Data bus utilization in percentage for writes
system.mem_ctrls.avgRdQLen                       1.00                       # Average read queue length when enqueuing
system.mem_ctrls.avgWrQLen                      25.27                       # Average write queue length when enqueuing
system.mem_ctrls.readRowHits                   144044                       # Number of row buffer hits during reads
system.mem_ctrls.writeRowHits                   10996                       # Number of row buffer hits during writes
system.mem_ctrls.readRowHitRate                 70.37                       # Row buffer hit rate for reads
system.mem_ctrls.writeRowHitRate                42.19                       # Row buffer hit rate for writes
system.mem_ctrls.avgGap                   12658963.91                       # Average gap between requests
system.mem_ctrls.pageHitRate                    67.18                       # Row buffer hit rate, read and write combined
system.mem_ctrls_0.actEnergy                322154280                       # Energy for activate commands per rank (pJ)
system.mem_ctrls_0.preEnergy                175778625                       # Energy for precharge commands per rank (pJ)
system.mem_ctrls_0.readEnergy               885268800                       # Energy for read commands per rank (pJ)
system.mem_ctrls_0.writeEnergy               88691760                       # Energy for write commands per rank (pJ)
system.mem_ctrls_0.refreshEnergy         193048358880                       # Energy for refresh commands per rank (pJ)
system.mem_ctrls_0.actBackEnergy         117552294720                       # Energy for active background per rank (pJ)
system.mem_ctrls_0.preBackEnergy         1670271064500                       # Energy for precharge background per rank (pJ)
system.mem_ctrls_0.totalEnergy           1982343611565                       # Total energy per rank (pJ)
system.mem_ctrls_0.averagePower            670.697423                       # Core power per rank (mW)
system.mem_ctrls_0.memoryStateTime::IDLE 2776762832250                       # Time in different power states
system.mem_ctrls_0.memoryStateTime::REF   98566260000                       # Time in different power states
system.mem_ctrls_0.memoryStateTime::PRE_PDN            0                       # Time in different power states
system.mem_ctrls_0.memoryStateTime::ACT   76444528750                       # Time in different power states
system.mem_ctrls_0.memoryStateTime::ACT_PDN            0                       # Time in different power states
system.mem_ctrls_1.actEnergy                280755720                       # Energy for activate commands per rank (pJ)
system.mem_ctrls_1.preEnergy                153190125                       # Energy for precharge commands per rank (pJ)
system.mem_ctrls_1.readEnergy               841144200                       # Energy for read commands per rank (pJ)
system.mem_ctrls_1.writeEnergy               80539920                       # Energy for write commands per rank (pJ)
system.mem_ctrls_1.refreshEnergy         193048358880                       # Energy for refresh commands per rank (pJ)
system.mem_ctrls_1.actBackEnergy         108554176395                       # Energy for active background per rank (pJ)
system.mem_ctrls_1.preBackEnergy         1678164150750                       # Energy for precharge background per rank (pJ)
system.mem_ctrls_1.totalEnergy           1981122315990                       # Total energy per rank (pJ)
system.mem_ctrls_1.averagePower            670.284216                       # Core power per rank (mW)
system.mem_ctrls_1.memoryStateTime::IDLE 2789930610000                       # Time in different power states
system.mem_ctrls_1.memoryStateTime::REF   98566260000                       # Time in different power states
system.mem_ctrls_1.memoryStateTime::PRE_PDN            0                       # Time in different power states
system.mem_ctrls_1.memoryStateTime::ACT   63279622500                       # Time in different power states
system.mem_ctrls_1.memoryStateTime::ACT_PDN            0                       # Time in different power states
system.cpu_voltage_domain.voltage                   1                       # Voltage in Volts
system.cpu_clk_domain.clock                       500                       # Clock period in ticks
system.cpu0.apic_clk_domain.clock                8000                       # Clock period in ticks
system.cpu0.numCycles                      5906787015                       # number of cpu cycles simulated
system.cpu0.numWorkItemsStarted                     0                       # number of work items this cpu started
system.cpu0.numWorkItemsCompleted                   0                       # number of work items this cpu completed
system.cpu0.kern.inst.arm                           0                       # number of arm instructions executed
system.cpu0.kern.inst.quiesce                       0                       # number of quiesce instructions executed
system.cpu0.committedInsts                    2913391                       # Number of instructions committed
system.cpu0.committedOps                      6223264                       # Number of ops (including micro ops) committed
system.cpu0.num_int_alu_accesses              6106453                       # Number of integer alu accesses
system.cpu0.num_fp_alu_accesses                   165                       # Number of float alu accesses
system.cpu0.num_func_calls                     174452                       # number of times a function call or return occured
system.cpu0.num_conditional_control_insts       479196                       # number of instructions that are conditional controls
system.cpu0.num_int_insts                     6106453                       # number of integer instructions
system.cpu0.num_fp_insts                          165                       # number of float instructions
system.cpu0.num_int_register_reads           12097757                       # number of times the integer registers were read
system.cpu0.num_int_register_writes           5017430                       # number of times the integer registers were written
system.cpu0.num_fp_register_reads                 273                       # number of times the floating registers were read
system.cpu0.num_fp_register_writes                133                       # number of times the floating registers were written
system.cpu0.num_cc_register_reads             3729346                       # number of times the CC registers were read
system.cpu0.num_cc_register_writes            1958532                       # number of times the CC registers were written
system.cpu0.num_mem_refs                      1371022                       # number of memory refs
system.cpu0.num_load_insts                     851526                       # Number of load instructions
system.cpu0.num_store_insts                    519496                       # Number of store instructions
system.cpu0.num_idle_cycles              5894436470.901418                       # Number of idle cycles
system.cpu0.num_busy_cycles              12350544.098582                       # Number of busy cycles
system.cpu0.not_idle_fraction                0.002091                       # Percentage of non-idle cycles
system.cpu0.idle_fraction                    0.997909                       # Percentage of idle cycles
system.cpu0.Branches                           704870                       # Number of branches fetched
system.cpu0.op_class::No_OpClass                86420      1.39%      1.39% # Class of executed instruction
system.cpu0.op_class::IntAlu                  4725186     75.93%     77.32% # Class of executed instruction
system.cpu0.op_class::IntMult                   12993      0.21%     77.52% # Class of executed instruction
system.cpu0.op_class::IntDiv                    27545      0.44%     77.97% # Class of executed instruction
system.cpu0.op_class::FloatAdd                    122      0.00%     77.97% # Class of executed instruction
system.cpu0.op_class::FloatCmp                      0      0.00%     77.97% # Class of executed instruction
system.cpu0.op_class::FloatCvt                      0      0.00%     77.97% # Class of executed instruction
system.cpu0.op_class::FloatMult                     0      0.00%     77.97% # Class of executed instruction
system.cpu0.op_class::FloatDiv                      0      0.00%     77.97% # Class of executed instruction
system.cpu0.op_class::FloatSqrt                     0      0.00%     77.97% # Class of executed instruction
system.cpu0.op_class::SimdAdd                       0      0.00%     77.97% # Class of executed instruction
system.cpu0.op_class::SimdAddAcc                    0      0.00%     77.97% # Class of executed instruction
system.cpu0.op_class::SimdAlu                       0      0.00%     77.97% # Class of executed instruction
system.cpu0.op_class::SimdCmp                       0      0.00%     77.97% # Class of executed instruction
system.cpu0.op_class::SimdCvt                       0      0.00%     77.97% # Class of executed instruction
system.cpu0.op_class::SimdMisc                      0      0.00%     77.97% # Class of executed instruction
system.cpu0.op_class::SimdMult                      0      0.00%     77.97% # Class of executed instruction
system.cpu0.op_class::SimdMultAcc                   0      0.00%     77.97% # Class of executed instruction
system.cpu0.op_class::SimdShift                     0      0.00%     77.97% # Class of executed instruction
system.cpu0.op_class::SimdShiftAcc                  0      0.00%     77.97% # Class of executed instruction
system.cpu0.op_class::SimdSqrt                      0      0.00%     77.97% # Class of executed instruction
system.cpu0.op_class::SimdFloatAdd                  0      0.00%     77.97% # Class of executed instruction
system.cpu0.op_class::SimdFloatAlu                  0      0.00%     77.97% # Class of executed instruction
system.cpu0.op_class::SimdFloatCmp                  0      0.00%     77.97% # Class of executed instruction
system.cpu0.op_class::SimdFloatCvt                  0      0.00%     77.97% # Class of executed instruction
system.cpu0.op_class::SimdFloatDiv                  0      0.00%     77.97% # Class of executed instruction
system.cpu0.op_class::SimdFloatMisc                 0      0.00%     77.97% # Class of executed instruction
system.cpu0.op_class::SimdFloatMult                 0      0.00%     77.97% # Class of executed instruction
system.cpu0.op_class::SimdFloatMultAcc              0      0.00%     77.97% # Class of executed instruction
system.cpu0.op_class::SimdFloatSqrt                 0      0.00%     77.97% # Class of executed instruction
system.cpu0.op_class::MemRead                  851526     13.68%     91.65% # Class of executed instruction
system.cpu0.op_class::MemWrite                 519496      8.35%    100.00% # Class of executed instruction
system.cpu0.op_class::IprAccess                     0      0.00%    100.00% # Class of executed instruction
system.cpu0.op_class::InstPrefetch                  0      0.00%    100.00% # Class of executed instruction
system.cpu0.op_class::total                   6223288                       # Class of executed instruction
system.cpu1.apic_clk_domain.clock                8000                       # Clock period in ticks
system.cpu1.numCycles                      5904496995                       # number of cpu cycles simulated
system.cpu1.numWorkItemsStarted                     0                       # number of work items this cpu started
system.cpu1.numWorkItemsCompleted                   0                       # number of work items this cpu completed
system.cpu1.kern.inst.arm                           0                       # number of arm instructions executed
system.cpu1.kern.inst.quiesce                       0                       # number of quiesce instructions executed
system.cpu1.committedInsts                 1522959085                       # Number of instructions committed
system.cpu1.committedOps                   2548323210                       # Number of ops (including micro ops) committed
system.cpu1.num_int_alu_accesses           1952773548                       # Number of integer alu accesses
system.cpu1.num_fp_alu_accesses             965601665                       # Number of float alu accesses
system.cpu1.num_func_calls                   35519181                       # number of times a function call or return occured
system.cpu1.num_conditional_control_insts    171937005                       # number of instructions that are conditional controls
system.cpu1.num_int_insts                  1952773548                       # number of integer instructions
system.cpu1.num_fp_insts                    965601665                       # number of float instructions
system.cpu1.num_int_register_reads         4136017962                       # number of times the integer registers were read
system.cpu1.num_int_register_writes        1332160265                       # number of times the integer registers were written
system.cpu1.num_fp_register_reads          1529965546                       # number of times the floating registers were read
system.cpu1.num_fp_register_writes          790021367                       # number of times the floating registers were written
system.cpu1.num_cc_register_reads          1449530932                       # number of times the CC registers were read
system.cpu1.num_cc_register_writes          551340251                       # number of times the CC registers were written
system.cpu1.num_mem_refs                    645357285                       # number of memory refs
system.cpu1.num_load_insts                  478759106                       # Number of load instructions
system.cpu1.num_store_insts                 166598179                       # Number of store instructions
system.cpu1.num_idle_cycles              4923462.811389                       # Number of idle cycles
system.cpu1.num_busy_cycles              5899573532.188611                       # Number of busy cycles
system.cpu1.not_idle_fraction                0.999166                       # Percentage of non-idle cycles
system.cpu1.idle_fraction                    0.000834                       # Percentage of idle cycles
system.cpu1.Branches                        231861319                       # Number of branches fetched
system.cpu1.op_class::No_OpClass              3402779      0.13%      0.13% # Class of executed instruction
system.cpu1.op_class::IntAlu               1476056469     57.92%     58.06% # Class of executed instruction
system.cpu1.op_class::IntMult                 4735376      0.19%     58.24% # Class of executed instruction
system.cpu1.op_class::IntDiv                 19610380      0.77%     59.01% # Class of executed instruction
system.cpu1.op_class::FloatAdd              398092941     15.62%     74.63% # Class of executed instruction
system.cpu1.op_class::FloatCmp                      0      0.00%     74.63% # Class of executed instruction
system.cpu1.op_class::FloatCvt                      0      0.00%     74.63% # Class of executed instruction
system.cpu1.op_class::FloatMult                     0      0.00%     74.63% # Class of executed instruction
system.cpu1.op_class::FloatDiv                1068156      0.04%     74.68% # Class of executed instruction
system.cpu1.op_class::FloatSqrt                     0      0.00%     74.68% # Class of executed instruction
system.cpu1.op_class::SimdAdd                       0      0.00%     74.68% # Class of executed instruction
system.cpu1.op_class::SimdAddAcc                    0      0.00%     74.68% # Class of executed instruction
system.cpu1.op_class::SimdAlu                       0      0.00%     74.68% # Class of executed instruction
system.cpu1.op_class::SimdCmp                       0      0.00%     74.68% # Class of executed instruction
system.cpu1.op_class::SimdCvt                       0      0.00%     74.68% # Class of executed instruction
system.cpu1.op_class::SimdMisc                      0      0.00%     74.68% # Class of executed instruction
system.cpu1.op_class::SimdMult                      0      0.00%     74.68% # Class of executed instruction
system.cpu1.op_class::SimdMultAcc                   0      0.00%     74.68% # Class of executed instruction
system.cpu1.op_class::SimdShift                     0      0.00%     74.68% # Class of executed instruction
system.cpu1.op_class::SimdShiftAcc                  0      0.00%     74.68% # Class of executed instruction
system.cpu1.op_class::SimdSqrt                      0      0.00%     74.68% # Class of executed instruction
system.cpu1.op_class::SimdFloatAdd                  0      0.00%     74.68% # Class of executed instruction
system.cpu1.op_class::SimdFloatAlu                  0      0.00%     74.68% # Class of executed instruction
system.cpu1.op_class::SimdFloatCmp                  0      0.00%     74.68% # Class of executed instruction
system.cpu1.op_class::SimdFloatCvt                  0      0.00%     74.68% # Class of executed instruction
system.cpu1.op_class::SimdFloatDiv                  0      0.00%     74.68% # Class of executed instruction
system.cpu1.op_class::SimdFloatMisc                 0      0.00%     74.68% # Class of executed instruction
system.cpu1.op_class::SimdFloatMult                 0      0.00%     74.68% # Class of executed instruction
system.cpu1.op_class::SimdFloatMultAcc              0      0.00%     74.68% # Class of executed instruction
system.cpu1.op_class::SimdFloatSqrt                 0      0.00%     74.68% # Class of executed instruction
system.cpu1.op_class::MemRead               478759106     18.79%     93.46% # Class of executed instruction
system.cpu1.op_class::MemWrite              166598179      6.54%    100.00% # Class of executed instruction
system.cpu1.op_class::IprAccess                     0      0.00%    100.00% # Class of executed instruction
system.cpu1.op_class::InstPrefetch                  0      0.00%    100.00% # Class of executed instruction
system.cpu1.op_class::total                2548323386                       # Class of executed instruction
system.cpu2.apic_clk_domain.clock                8000                       # Clock period in ticks
system.cpu2.numCycles                      5900903085                       # number of cpu cycles simulated
system.cpu2.numWorkItemsStarted                     0                       # number of work items this cpu started
system.cpu2.numWorkItemsCompleted                   0                       # number of work items this cpu completed
system.cpu2.kern.inst.arm                           0                       # number of arm instructions executed
system.cpu2.kern.inst.quiesce                       0                       # number of quiesce instructions executed
system.cpu2.committedInsts                    2593368                       # Number of instructions committed
system.cpu2.committedOps                      5525666                       # Number of ops (including micro ops) committed
system.cpu2.num_int_alu_accesses              5416564                       # Number of integer alu accesses
system.cpu2.num_fp_alu_accesses                     0                       # Number of float alu accesses
system.cpu2.num_func_calls                     144868                       # number of times a function call or return occured
system.cpu2.num_conditional_control_insts       448548                       # number of instructions that are conditional controls
system.cpu2.num_int_insts                     5416564                       # number of integer instructions
system.cpu2.num_fp_insts                            0                       # number of float instructions
system.cpu2.num_int_register_reads           10717709                       # number of times the integer registers were read
system.cpu2.num_int_register_writes           4468829                       # number of times the integer registers were written
system.cpu2.num_fp_register_reads                   0                       # number of times the floating registers were read
system.cpu2.num_fp_register_writes                  0                       # number of times the floating registers were written
system.cpu2.num_cc_register_reads             3421789                       # number of times the CC registers were read
system.cpu2.num_cc_register_writes            1731410                       # number of times the CC registers were written
system.cpu2.num_mem_refs                      1207816                       # number of memory refs
system.cpu2.num_load_insts                     755988                       # Number of load instructions
system.cpu2.num_store_insts                    451828                       # Number of store instructions
system.cpu2.num_idle_cycles              5890241971.028262                       # Number of idle cycles
system.cpu2.num_busy_cycles              10661113.971738                       # Number of busy cycles
system.cpu2.not_idle_fraction                0.001807                       # Percentage of non-idle cycles
system.cpu2.idle_fraction                    0.998193                       # Percentage of idle cycles
system.cpu2.Branches                           638411                       # Number of branches fetched
system.cpu2.op_class::No_OpClass                88510      1.60%      1.60% # Class of executed instruction
system.cpu2.op_class::IntAlu                  4188667     75.80%     77.41% # Class of executed instruction
system.cpu2.op_class::IntMult                    9918      0.18%     77.59% # Class of executed instruction
system.cpu2.op_class::IntDiv                    30758      0.56%     78.14% # Class of executed instruction
system.cpu2.op_class::FloatAdd                      0      0.00%     78.14% # Class of executed instruction
system.cpu2.op_class::FloatCmp                      0      0.00%     78.14% # Class of executed instruction
system.cpu2.op_class::FloatCvt                      0      0.00%     78.14% # Class of executed instruction
system.cpu2.op_class::FloatMult                     0      0.00%     78.14% # Class of executed instruction
system.cpu2.op_class::FloatDiv                      0      0.00%     78.14% # Class of executed instruction
system.cpu2.op_class::FloatSqrt                     0      0.00%     78.14% # Class of executed instruction
system.cpu2.op_class::SimdAdd                       0      0.00%     78.14% # Class of executed instruction
system.cpu2.op_class::SimdAddAcc                    0      0.00%     78.14% # Class of executed instruction
system.cpu2.op_class::SimdAlu                       0      0.00%     78.14% # Class of executed instruction
system.cpu2.op_class::SimdCmp                       0      0.00%     78.14% # Class of executed instruction
system.cpu2.op_class::SimdCvt                       0      0.00%     78.14% # Class of executed instruction
system.cpu2.op_class::SimdMisc                      0      0.00%     78.14% # Class of executed instruction
system.cpu2.op_class::SimdMult                      0      0.00%     78.14% # Class of executed instruction
system.cpu2.op_class::SimdMultAcc                   0      0.00%     78.14% # Class of executed instruction
system.cpu2.op_class::SimdShift                     0      0.00%     78.14% # Class of executed instruction
system.cpu2.op_class::SimdShiftAcc                  0      0.00%     78.14% # Class of executed instruction
system.cpu2.op_class::SimdSqrt                      0      0.00%     78.14% # Class of executed instruction
system.cpu2.op_class::SimdFloatAdd                  0      0.00%     78.14% # Class of executed instruction
system.cpu2.op_class::SimdFloatAlu                  0      0.00%     78.14% # Class of executed instruction
system.cpu2.op_class::SimdFloatCmp                  0      0.00%     78.14% # Class of executed instruction
system.cpu2.op_class::SimdFloatCvt                  0      0.00%     78.14% # Class of executed instruction
system.cpu2.op_class::SimdFloatDiv                  0      0.00%     78.14% # Class of executed instruction
system.cpu2.op_class::SimdFloatMisc                 0      0.00%     78.14% # Class of executed instruction
system.cpu2.op_class::SimdFloatMult                 0      0.00%     78.14% # Class of executed instruction
system.cpu2.op_class::SimdFloatMultAcc              0      0.00%     78.14% # Class of executed instruction
system.cpu2.op_class::SimdFloatSqrt                 0      0.00%     78.14% # Class of executed instruction
system.cpu2.op_class::MemRead                  755988     13.68%     91.82% # Class of executed instruction
system.cpu2.op_class::MemWrite                 451828      8.18%    100.00% # Class of executed instruction
system.cpu2.op_class::IprAccess                     0      0.00%    100.00% # Class of executed instruction
system.cpu2.op_class::InstPrefetch                  0      0.00%    100.00% # Class of executed instruction
system.cpu2.op_class::total                   5525669                       # Class of executed instruction
system.cpu3.apic_clk_domain.clock                8000                       # Clock period in ticks
system.cpu3.numCycles                      5901404947                       # number of cpu cycles simulated
system.cpu3.numWorkItemsStarted                     0                       # number of work items this cpu started
system.cpu3.numWorkItemsCompleted                   0                       # number of work items this cpu completed
system.cpu3.kern.inst.arm                           0                       # number of arm instructions executed
system.cpu3.kern.inst.quiesce                       0                       # number of quiesce instructions executed
system.cpu3.committedInsts                    3456412                       # Number of instructions committed
system.cpu3.committedOps                      7132254                       # Number of ops (including micro ops) committed
system.cpu3.num_int_alu_accesses              7001408                       # Number of integer alu accesses
system.cpu3.num_fp_alu_accesses                  1778                       # Number of float alu accesses
system.cpu3.num_func_calls                     175522                       # number of times a function call or return occured
system.cpu3.num_conditional_control_insts       592344                       # number of instructions that are conditional controls
system.cpu3.num_int_insts                     7001408                       # number of integer instructions
system.cpu3.num_fp_insts                         1778                       # number of float instructions
system.cpu3.num_int_register_reads           13914165                       # number of times the integer registers were read
system.cpu3.num_int_register_writes           5750275                       # number of times the integer registers were written
system.cpu3.num_fp_register_reads                2988                       # number of times the floating registers were read
system.cpu3.num_fp_register_writes               1416                       # number of times the floating registers were written
system.cpu3.num_cc_register_reads             4406248                       # number of times the CC registers were read
system.cpu3.num_cc_register_writes            2306018                       # number of times the CC registers were written
system.cpu3.num_mem_refs                      1562836                       # number of memory refs
system.cpu3.num_load_insts                     978323                       # Number of load instructions
system.cpu3.num_store_insts                    584513                       # Number of store instructions
system.cpu3.num_idle_cycles              5886284703.999657                       # Number of idle cycles
system.cpu3.num_busy_cycles              15120243.000344                       # Number of busy cycles
system.cpu3.not_idle_fraction                0.002562                       # Percentage of non-idle cycles
system.cpu3.idle_fraction                    0.997438                       # Percentage of idle cycles
system.cpu3.Branches                           822657                       # Number of branches fetched
system.cpu3.op_class::No_OpClass                97771      1.37%      1.37% # Class of executed instruction
system.cpu3.op_class::IntAlu                  5426070     76.08%     77.45% # Class of executed instruction
system.cpu3.op_class::IntMult                   10875      0.15%     77.60% # Class of executed instruction
system.cpu3.op_class::IntDiv                    33448      0.47%     78.07% # Class of executed instruction
system.cpu3.op_class::FloatAdd                   1344      0.02%     78.09% # Class of executed instruction
system.cpu3.op_class::FloatCmp                      0      0.00%     78.09% # Class of executed instruction
system.cpu3.op_class::FloatCvt                      0      0.00%     78.09% # Class of executed instruction
system.cpu3.op_class::FloatMult                     0      0.00%     78.09% # Class of executed instruction
system.cpu3.op_class::FloatDiv                      0      0.00%     78.09% # Class of executed instruction
system.cpu3.op_class::FloatSqrt                     0      0.00%     78.09% # Class of executed instruction
system.cpu3.op_class::SimdAdd                       0      0.00%     78.09% # Class of executed instruction
system.cpu3.op_class::SimdAddAcc                    0      0.00%     78.09% # Class of executed instruction
system.cpu3.op_class::SimdAlu                       0      0.00%     78.09% # Class of executed instruction
system.cpu3.op_class::SimdCmp                       0      0.00%     78.09% # Class of executed instruction
system.cpu3.op_class::SimdCvt                       0      0.00%     78.09% # Class of executed instruction
system.cpu3.op_class::SimdMisc                      0      0.00%     78.09% # Class of executed instruction
system.cpu3.op_class::SimdMult                      0      0.00%     78.09% # Class of executed instruction
system.cpu3.op_class::SimdMultAcc                   0      0.00%     78.09% # Class of executed instruction
system.cpu3.op_class::SimdShift                     0      0.00%     78.09% # Class of executed instruction
system.cpu3.op_class::SimdShiftAcc                  0      0.00%     78.09% # Class of executed instruction
system.cpu3.op_class::SimdSqrt                      0      0.00%     78.09% # Class of executed instruction
system.cpu3.op_class::SimdFloatAdd                  0      0.00%     78.09% # Class of executed instruction
system.cpu3.op_class::SimdFloatAlu                  0      0.00%     78.09% # Class of executed instruction
system.cpu3.op_class::SimdFloatCmp                  0      0.00%     78.09% # Class of executed instruction
system.cpu3.op_class::SimdFloatCvt                  0      0.00%     78.09% # Class of executed instruction
system.cpu3.op_class::SimdFloatDiv                  0      0.00%     78.09% # Class of executed instruction
system.cpu3.op_class::SimdFloatMisc                 0      0.00%     78.09% # Class of executed instruction
system.cpu3.op_class::SimdFloatMult                 0      0.00%     78.09% # Class of executed instruction
system.cpu3.op_class::SimdFloatMultAcc              0      0.00%     78.09% # Class of executed instruction
system.cpu3.op_class::SimdFloatSqrt                 0      0.00%     78.09% # Class of executed instruction
system.cpu3.op_class::MemRead                  978323     13.72%     91.80% # Class of executed instruction
system.cpu3.op_class::MemWrite                 584513      8.20%    100.00% # Class of executed instruction
system.cpu3.op_class::IprAccess                     0      0.00%    100.00% # Class of executed instruction
system.cpu3.op_class::InstPrefetch                  0      0.00%    100.00% # Class of executed instruction
system.cpu3.op_class::total                   7132344                       # Class of executed instruction
system.iobus.trans_dist::ReadReq                  865                       # Transaction distribution
system.iobus.trans_dist::ReadResp                 865                       # Transaction distribution
system.iobus.trans_dist::WriteReq                4585                       # Transaction distribution
system.iobus.trans_dist::WriteResp               4585                       # Transaction distribution
system.iobus.trans_dist::MessageReq               111                       # Transaction distribution
system.iobus.trans_dist::MessageResp              111                       # Transaction distribution
system.iobus.pkt_count_system.pc.south_bridge.io_apic.int_master::system.ruby.l1_cntrl0.sequencer.pio-slave-port           52                       # Packet count per connected master and slave (bytes)
system.iobus.pkt_count_system.pc.south_bridge.io_apic.int_master::system.ruby.l1_cntrl1.sequencer.pio-slave-port           52                       # Packet count per connected master and slave (bytes)
system.iobus.pkt_count_system.pc.south_bridge.io_apic.int_master::system.ruby.l1_cntrl2.sequencer.pio-slave-port           50                       # Packet count per connected master and slave (bytes)
system.iobus.pkt_count_system.pc.south_bridge.io_apic.int_master::system.ruby.l1_cntrl3.sequencer.pio-slave-port           50                       # Packet count per connected master and slave (bytes)
system.iobus.pkt_count_system.pc.south_bridge.io_apic.int_master::total          204                       # Packet count per connected master and slave (bytes)
system.iobus.pkt_count_system.ruby.l1_cntrl0.sequencer.mem-master-port::system.pc.south_bridge.ide.pio         1014                       # Packet count per connected master and slave (bytes)
system.iobus.pkt_count_system.ruby.l1_cntrl0.sequencer.mem-master-port::system.pc.south_bridge.io_apic.pio            8                       # Packet count per connected master and slave (bytes)
system.iobus.pkt_count_system.ruby.l1_cntrl0.sequencer.mem-master-port::system.pc.com_1.pio            2                       # Packet count per connected master and slave (bytes)
system.iobus.pkt_count_system.ruby.l1_cntrl0.sequencer.mem-master-port::system.ruby.l1_cntrl0.sequencer.pio-slave-port         1544                       # Packet count per connected master and slave (bytes)
system.iobus.pkt_count_system.ruby.l1_cntrl0.sequencer.mem-master-port::system.ruby.l1_cntrl1.sequencer.pio-slave-port            2                       # Packet count per connected master and slave (bytes)
system.iobus.pkt_count_system.ruby.l1_cntrl0.sequencer.mem-master-port::total         2570                       # Packet count per connected master and slave (bytes)
system.iobus.pkt_count_system.ruby.l1_cntrl1.sequencer.mem-master-port::system.pc.south_bridge.ide.pio         1626                       # Packet count per connected master and slave (bytes)
system.iobus.pkt_count_system.ruby.l1_cntrl1.sequencer.mem-master-port::system.pc.south_bridge.io_apic.pio            8                       # Packet count per connected master and slave (bytes)
system.iobus.pkt_count_system.ruby.l1_cntrl1.sequencer.mem-master-port::system.ruby.l1_cntrl0.sequencer.pio-slave-port            6                       # Packet count per connected master and slave (bytes)
system.iobus.pkt_count_system.ruby.l1_cntrl1.sequencer.mem-master-port::system.ruby.l1_cntrl1.sequencer.pio-slave-port         1556                       # Packet count per connected master and slave (bytes)
system.iobus.pkt_count_system.ruby.l1_cntrl1.sequencer.mem-master-port::system.ruby.l1_cntrl2.sequencer.pio-slave-port            2                       # Packet count per connected master and slave (bytes)
system.iobus.pkt_count_system.ruby.l1_cntrl1.sequencer.mem-master-port::total         3198                       # Packet count per connected master and slave (bytes)
system.iobus.pkt_count_system.ruby.l1_cntrl2.sequencer.mem-master-port::system.pc.south_bridge.ide.pio          934                       # Packet count per connected master and slave (bytes)
system.iobus.pkt_count_system.ruby.l1_cntrl2.sequencer.mem-master-port::system.pc.south_bridge.io_apic.pio            6                       # Packet count per connected master and slave (bytes)
system.iobus.pkt_count_system.ruby.l1_cntrl2.sequencer.mem-master-port::system.pc.com_1.pio          174                       # Packet count per connected master and slave (bytes)
system.iobus.pkt_count_system.ruby.l1_cntrl2.sequencer.mem-master-port::system.ruby.l1_cntrl2.sequencer.pio-slave-port         1538                       # Packet count per connected master and slave (bytes)
system.iobus.pkt_count_system.ruby.l1_cntrl2.sequencer.mem-master-port::system.ruby.l1_cntrl3.sequencer.pio-slave-port            2                       # Packet count per connected master and slave (bytes)
system.iobus.pkt_count_system.ruby.l1_cntrl2.sequencer.mem-master-port::total         2654                       # Packet count per connected master and slave (bytes)
system.iobus.pkt_count_system.ruby.l1_cntrl3.sequencer.mem-master-port::system.pc.south_bridge.ide.pio          934                       # Packet count per connected master and slave (bytes)
system.iobus.pkt_count_system.ruby.l1_cntrl3.sequencer.mem-master-port::system.pc.south_bridge.io_apic.pio            8                       # Packet count per connected master and slave (bytes)
system.iobus.pkt_count_system.ruby.l1_cntrl3.sequencer.mem-master-port::system.ruby.l1_cntrl0.sequencer.pio-slave-port            2                       # Packet count per connected master and slave (bytes)
system.iobus.pkt_count_system.ruby.l1_cntrl3.sequencer.mem-master-port::system.ruby.l1_cntrl1.sequencer.pio-slave-port            2                       # Packet count per connected master and slave (bytes)
system.iobus.pkt_count_system.ruby.l1_cntrl3.sequencer.mem-master-port::system.ruby.l1_cntrl2.sequencer.pio-slave-port            2                       # Packet count per connected master and slave (bytes)
system.iobus.pkt_count_system.ruby.l1_cntrl3.sequencer.mem-master-port::system.ruby.l1_cntrl3.sequencer.pio-slave-port         1548                       # Packet count per connected master and slave (bytes)
system.iobus.pkt_count_system.ruby.l1_cntrl3.sequencer.mem-master-port::total         2496                       # Packet count per connected master and slave (bytes)
system.iobus.pkt_count::total                   11122                       # Packet count per connected master and slave (bytes)
system.iobus.pkt_size_system.pc.south_bridge.io_apic.int_master::system.ruby.l1_cntrl0.sequencer.pio-slave-port          104                       # Cumulative packet size per connected master and slave (bytes)
system.iobus.pkt_size_system.pc.south_bridge.io_apic.int_master::system.ruby.l1_cntrl1.sequencer.pio-slave-port          104                       # Cumulative packet size per connected master and slave (bytes)
system.iobus.pkt_size_system.pc.south_bridge.io_apic.int_master::system.ruby.l1_cntrl2.sequencer.pio-slave-port          100                       # Cumulative packet size per connected master and slave (bytes)
system.iobus.pkt_size_system.pc.south_bridge.io_apic.int_master::system.ruby.l1_cntrl3.sequencer.pio-slave-port          100                       # Cumulative packet size per connected master and slave (bytes)
system.iobus.pkt_size_system.pc.south_bridge.io_apic.int_master::total          408                       # Cumulative packet size per connected master and slave (bytes)
system.iobus.pkt_size_system.ruby.l1_cntrl0.sequencer.mem-master-port::system.pc.south_bridge.ide.pio          570                       # Cumulative packet size per connected master and slave (bytes)
system.iobus.pkt_size_system.ruby.l1_cntrl0.sequencer.mem-master-port::system.pc.south_bridge.io_apic.pio           16                       # Cumulative packet size per connected master and slave (bytes)
system.iobus.pkt_size_system.ruby.l1_cntrl0.sequencer.mem-master-port::system.pc.com_1.pio            1                       # Cumulative packet size per connected master and slave (bytes)
system.iobus.pkt_size_system.ruby.l1_cntrl0.sequencer.mem-master-port::system.ruby.l1_cntrl0.sequencer.pio-slave-port         3088                       # Cumulative packet size per connected master and slave (bytes)
system.iobus.pkt_size_system.ruby.l1_cntrl0.sequencer.mem-master-port::system.ruby.l1_cntrl1.sequencer.pio-slave-port            4                       # Cumulative packet size per connected master and slave (bytes)
system.iobus.pkt_size_system.ruby.l1_cntrl0.sequencer.mem-master-port::total         3679                       # Cumulative packet size per connected master and slave (bytes)
system.iobus.pkt_size_system.ruby.l1_cntrl1.sequencer.mem-master-port::system.pc.south_bridge.ide.pio          930                       # Cumulative packet size per connected master and slave (bytes)
system.iobus.pkt_size_system.ruby.l1_cntrl1.sequencer.mem-master-port::system.pc.south_bridge.io_apic.pio           16                       # Cumulative packet size per connected master and slave (bytes)
system.iobus.pkt_size_system.ruby.l1_cntrl1.sequencer.mem-master-port::system.ruby.l1_cntrl0.sequencer.pio-slave-port           12                       # Cumulative packet size per connected master and slave (bytes)
system.iobus.pkt_size_system.ruby.l1_cntrl1.sequencer.mem-master-port::system.ruby.l1_cntrl1.sequencer.pio-slave-port         3112                       # Cumulative packet size per connected master and slave (bytes)
system.iobus.pkt_size_system.ruby.l1_cntrl1.sequencer.mem-master-port::system.ruby.l1_cntrl2.sequencer.pio-slave-port            4                       # Cumulative packet size per connected master and slave (bytes)
system.iobus.pkt_size_system.ruby.l1_cntrl1.sequencer.mem-master-port::total         4074                       # Cumulative packet size per connected master and slave (bytes)
system.iobus.pkt_size_system.ruby.l1_cntrl2.sequencer.mem-master-port::system.pc.south_bridge.ide.pio          524                       # Cumulative packet size per connected master and slave (bytes)
system.iobus.pkt_size_system.ruby.l1_cntrl2.sequencer.mem-master-port::system.pc.south_bridge.io_apic.pio           12                       # Cumulative packet size per connected master and slave (bytes)
system.iobus.pkt_size_system.ruby.l1_cntrl2.sequencer.mem-master-port::system.pc.com_1.pio           87                       # Cumulative packet size per connected master and slave (bytes)
system.iobus.pkt_size_system.ruby.l1_cntrl2.sequencer.mem-master-port::system.ruby.l1_cntrl2.sequencer.pio-slave-port         3076                       # Cumulative packet size per connected master and slave (bytes)
system.iobus.pkt_size_system.ruby.l1_cntrl2.sequencer.mem-master-port::system.ruby.l1_cntrl3.sequencer.pio-slave-port            4                       # Cumulative packet size per connected master and slave (bytes)
system.iobus.pkt_size_system.ruby.l1_cntrl2.sequencer.mem-master-port::total         3703                       # Cumulative packet size per connected master and slave (bytes)
system.iobus.pkt_size_system.ruby.l1_cntrl3.sequencer.mem-master-port::system.pc.south_bridge.ide.pio          524                       # Cumulative packet size per connected master and slave (bytes)
system.iobus.pkt_size_system.ruby.l1_cntrl3.sequencer.mem-master-port::system.pc.south_bridge.io_apic.pio           16                       # Cumulative packet size per connected master and slave (bytes)
system.iobus.pkt_size_system.ruby.l1_cntrl3.sequencer.mem-master-port::system.ruby.l1_cntrl0.sequencer.pio-slave-port            4                       # Cumulative packet size per connected master and slave (bytes)
system.iobus.pkt_size_system.ruby.l1_cntrl3.sequencer.mem-master-port::system.ruby.l1_cntrl1.sequencer.pio-slave-port            4                       # Cumulative packet size per connected master and slave (bytes)
system.iobus.pkt_size_system.ruby.l1_cntrl3.sequencer.mem-master-port::system.ruby.l1_cntrl2.sequencer.pio-slave-port            4                       # Cumulative packet size per connected master and slave (bytes)
system.iobus.pkt_size_system.ruby.l1_cntrl3.sequencer.mem-master-port::system.ruby.l1_cntrl3.sequencer.pio-slave-port         3096                       # Cumulative packet size per connected master and slave (bytes)
system.iobus.pkt_size_system.ruby.l1_cntrl3.sequencer.mem-master-port::total         3648                       # Cumulative packet size per connected master and slave (bytes)
system.iobus.pkt_size::total                    15512                       # Cumulative packet size per connected master and slave (bytes)
system.iobus.reqLayer2.occupancy              3905000                       # Layer occupancy (ticks)
system.iobus.reqLayer2.utilization                0.0                       # Layer utilization (%)
system.iobus.reqLayer8.occupancy                26996                       # Layer occupancy (ticks)
system.iobus.reqLayer8.utilization                0.0                       # Layer utilization (%)
system.iobus.reqLayer12.occupancy              113000                       # Layer occupancy (ticks)
system.iobus.reqLayer12.utilization               0.0                       # Layer utilization (%)
system.iobus.reqLayer17.occupancy             1980974                       # Layer occupancy (ticks)
system.iobus.reqLayer17.utilization               0.0                       # Layer utilization (%)
system.iobus.reqLayer18.occupancy             2186253                       # Layer occupancy (ticks)
system.iobus.reqLayer18.utilization               0.0                       # Layer utilization (%)
system.iobus.reqLayer19.occupancy             1972976                       # Layer occupancy (ticks)
system.iobus.reqLayer19.utilization               0.0                       # Layer utilization (%)
system.iobus.reqLayer20.occupancy             1959974                       # Layer occupancy (ticks)
system.iobus.reqLayer20.utilization               0.0                       # Layer utilization (%)
system.iobus.respLayer0.occupancy              175402                       # Layer occupancy (ticks)
system.iobus.respLayer0.utilization               0.0                       # Layer utilization (%)
system.iobus.respLayer2.occupancy             1858000                       # Layer occupancy (ticks)
system.iobus.respLayer2.utilization               0.0                       # Layer utilization (%)
system.iobus.respLayer4.occupancy             2250000                       # Layer occupancy (ticks)
system.iobus.respLayer4.utilization               0.0                       # Layer utilization (%)
system.iobus.respLayer6.occupancy             1950500                       # Layer occupancy (ticks)
system.iobus.respLayer6.utilization               0.0                       # Layer utilization (%)
system.iobus.respLayer8.occupancy             1812000                       # Layer occupancy (ticks)
system.iobus.respLayer8.utilization               0.0                       # Layer utilization (%)
system.pc.south_bridge.ide.disks.dma_read_full_pages         1522                       # Number of full page size DMA reads (not PRD).
system.pc.south_bridge.ide.disks.dma_read_bytes      6234112                       # Number of bytes transfered via DMA reads (not PRD).
system.pc.south_bridge.ide.disks.dma_read_txs         1522                       # Number of DMA read transactions (not PRD).
system.pc.south_bridge.ide.disks.dma_write_full_pages           45                       # Number of full page size DMA writes.
system.pc.south_bridge.ide.disks.dma_write_bytes       184320                       # Number of bytes transfered via DMA writes.
system.pc.south_bridge.ide.disks.dma_write_txs           45                       # Number of DMA write transactions.
system.ruby.clk_domain.clock                      500                       # Clock period in ticks
system.ruby.delayHist::bucket_size                  4                       # delay histogram for all message
system.ruby.delayHist::max_bucket                  39                       # delay histogram for all message
system.ruby.delayHist::samples               46540015                       # delay histogram for all message
system.ruby.delayHist::mean                  0.142475                       # delay histogram for all message
system.ruby.delayHist::stdev                 1.056741                       # delay histogram for all message
system.ruby.delayHist                    |    45713448     98.22%     98.22% |        2613      0.01%     98.23% |      823748      1.77%    100.00% |          76      0.00%    100.00% |         121      0.00%    100.00% |           6      0.00%    100.00% |           3      0.00%    100.00% |           0      0.00%    100.00% |           0      0.00%    100.00% |           0      0.00%    100.00% # delay histogram for all message
system.ruby.delayHist::total                 46540015                       # delay histogram for all message
system.ruby.outstanding_req_hist_seqr::bucket_size            1                      
system.ruby.outstanding_req_hist_seqr::max_bucket            9                      
system.ruby.outstanding_req_hist_seqr::samples   2882061448                      
system.ruby.outstanding_req_hist_seqr::mean     1.000000                      
system.ruby.outstanding_req_hist_seqr::gmean     1.000000                      
system.ruby.outstanding_req_hist_seqr::stdev     0.000269                      
[...]
system.ruby.DMA_Controller.Data::total          98277                      
system.ruby.DMA_Controller.Ack           |        3008    100.00%    100.00% |           0      0.00%    100.00%
system.ruby.DMA_Controller.Ack::total            3008                      
system.ruby.DMA_Controller.READY.ReadRequest |       98277    100.00%    100.00% |           0      0.00%    100.00%
system.ruby.DMA_Controller.READY.ReadRequest::total        98277                      
system.ruby.DMA_Controller.READY.WriteRequest |        3008    100.00%    100.00% |           0      0.00%    100.00%
system.ruby.DMA_Controller.READY.WriteRequest::total         3008                      
system.ruby.DMA_Controller.BUSY_RD.Data  |       98277    100.00%    100.00% |           0      0.00%    100.00%
system.ruby.DMA_Controller.BUSY_RD.Data::total        98277                      
system.ruby.DMA_Controller.BUSY_WR.Ack   |        3008    100.00%    100.00% |           0      0.00%    100.00%
system.ruby.DMA_Controller.BUSY_WR.Ack::total         3008                      
system.ruby.L1Cache_Controller.Load      |     1378175      0.28%      0.28% |   487581486     98.90%     99.18% |     1210496      0.25%     99.43% |     2824431      0.57%    100.00%
system.ruby.L1Cache_Controller.Load::total    492994588                      
system.ruby.L1Cache_Controller.Ifetch    |     7037611      0.00%      0.00% |18446744071627726848    100.00%    100.00% |     6052994      0.00%    100.00% |    15541478      0.00%    100.00%
system.ruby.L1Cache_Controller.Ifetch::total 18446744071656359936                      
system.ruby.L1Cache_Controller.Store     |     1039720      0.60%      0.60% |   169029679     97.63%     98.23% |      889349      0.51%     98.75% |     2170397      1.25%    100.00%
system.ruby.L1Cache_Controller.Store::total    173129145                      
system.ruby.L1Cache_Controller.Inv       |       23941     23.75%     23.75% |       22715     22.53%     46.29% |       23071     22.89%     69.17% |       31072     30.83%    100.00%
system.ruby.L1Cache_Controller.Inv::total       100799                      
system.ruby.L1Cache_Controller.L1_Replacement |      119315      1.21%      1.21% |     9508258     96.31%     97.52% |       98365      1.00%     98.51% |      146942      1.49%    100.00%
system.ruby.L1Cache_Controller.L1_Replacement::total      9872880                      
system.ruby.L1Cache_Controller.Fwd_GETX  |        2642     29.26%     29.26% |        1723     19.08%     48.34% |        2020     22.37%     70.72% |        2644     29.28%    100.00%
system.ruby.L1Cache_Controller.Fwd_GETX::total         9029                      
system.ruby.L1Cache_Controller.Fwd_GETS  |       10882     39.41%     39.41% |        4470     16.19%     55.61% |        6411     23.22%     78.83% |        5846     21.17%    100.00%
system.ruby.L1Cache_Controller.Fwd_GETS::total        27609                      
system.ruby.L1Cache_Controller.Data      |         128      5.09%      5.09% |         767     30.50%     35.59% |        1423     56.58%     92.17% |         197      7.83%    100.00%
system.ruby.L1Cache_Controller.Data::total         2515                      
system.ruby.L1Cache_Controller.Data_Exclusive |       25801      0.31%      0.31% |     8299096     98.67%     98.98% |       22428      0.27%     99.25% |       63350      0.75%    100.00%
system.ruby.L1Cache_Controller.Data_Exclusive::total      8410675                      
system.ruby.L1Cache_Controller.DataS_fromL1 |        6823     24.71%     24.71% |        3566     12.92%     37.63% |        5762     20.87%     58.50% |       11458     41.50%    100.00%
system.ruby.L1Cache_Controller.DataS_fromL1::total        27609                      
system.ruby.L1Cache_Controller.Data_all_Acks |       93656      6.40%      6.40% |     1209269     82.58%     88.98% |       78857      5.39%     94.36% |       82522      5.64%    100.00%
system.ruby.L1Cache_Controller.Data_all_Acks::total      1464304                      
system.ruby.L1Cache_Controller.Ack       |       18185     45.08%     45.08% |        8830     21.89%     66.97% |        6660     16.51%     83.48% |        6666     16.52%    100.00%
system.ruby.L1Cache_Controller.Ack::total        40341                      
system.ruby.L1Cache_Controller.Ack_all   |        8920     36.22%     36.22% |        5200     21.12%     57.34% |        5223     21.21%     78.55% |        5283     21.45%    100.00%
system.ruby.L1Cache_Controller.Ack_all::total        24626                      
system.ruby.L1Cache_Controller.WB_Ack    |       31447      0.35%      0.35% |     8886319     98.50%     98.85% |       27938      0.31%     99.16% |       75602      0.84%    100.00%
system.ruby.L1Cache_Controller.WB_Ack::total      9021306                      
system.ruby.L1Cache_Controller.NP.Load   |       37120      0.44%      0.44% |     8360704     98.28%     98.72% |       32281      0.38%     99.10% |       76806      0.90%    100.00%
system.ruby.L1Cache_Controller.NP.Load::total      8506911                      
system.ruby.L1Cache_Controller.NP.Ifetch |       69789      9.51%      9.51% |      556297     75.83%     85.34% |       54159      7.38%     92.73% |       53369      7.27%    100.00%
system.ruby.L1Cache_Controller.NP.Ifetch::total       733614                      
system.ruby.L1Cache_Controller.NP.Store  |       12940      2.04%      2.04% |      591257     93.40%     95.45% |       12049      1.90%     97.35% |       16767      2.65%    100.00%
system.ruby.L1Cache_Controller.NP.Store::total       633013                      
system.ruby.L1Cache_Controller.NP.Inv    |        9115     22.73%     22.73% |       12795     31.91%     54.65% |        6513     16.24%     70.89% |       11671     29.11%    100.00%
system.ruby.L1Cache_Controller.NP.Inv::total        40094                      
system.ruby.L1Cache_Controller.I.Load    |        3543     17.29%     17.29% |        2429     11.85%     29.14% |        7402     36.12%     65.26% |        7119     34.74%    100.00%
system.ruby.L1Cache_Controller.I.Load::total        20493                      
system.ruby.L1Cache_Controller.I.Ifetch  |         926     24.97%     24.97% |         981     26.45%     51.42% |         924     24.91%     76.33% |         878     23.67%    100.00%
system.ruby.L1Cache_Controller.I.Ifetch::total         3709                      
system.ruby.L1Cache_Controller.I.Store   |        2090     28.39%     28.39% |        1029     13.98%     42.37% |        1655     22.48%     64.85% |        2588     35.15%    100.00%
system.ruby.L1Cache_Controller.I.Store::total         7362                      
system.ruby.L1Cache_Controller.I.L1_Replacement |       10501     28.38%     28.38% |        6852     18.52%     46.90% |        8930     24.14%     71.04% |       10716     28.96%    100.00%
system.ruby.L1Cache_Controller.I.L1_Replacement::total        36999                      
system.ruby.L1Cache_Controller.S.Load    |      206380      2.99%      2.99% |     6253701     90.64%     93.63% |      203572      2.95%     96.58% |      235763      3.42%    100.00%
system.ruby.L1Cache_Controller.S.Load::total      6899416                      
system.ruby.L1Cache_Controller.S.Ifetch  |     6966896      0.00%      0.00% |18446744071627167744    100.00%    100.00% |     5997911      0.00%    100.00% |    15487231      0.00%    100.00%
system.ruby.L1Cache_Controller.S.Ifetch::total 18446744071655620608                      
system.ruby.L1Cache_Controller.S.Store   |        8792     39.76%     39.76% |        4434     20.05%     59.81% |        3800     17.19%     77.00% |        5086     23.00%    100.00%
system.ruby.L1Cache_Controller.S.Store::total        22112                      
system.ruby.L1Cache_Controller.S.Inv     |       10366     22.94%     22.94% |        6313     13.97%     36.91% |       13560     30.01%     66.93% |       14944     33.07%    100.00%
system.ruby.L1Cache_Controller.S.Inv::total        45183                      
system.ruby.L1Cache_Controller.S.L1_Replacement |       77367      9.50%      9.50% |      615087     75.51%     85.01% |       61497      7.55%     92.56% |       60624      7.44%    100.00%
system.ruby.L1Cache_Controller.S.L1_Replacement::total       814575                      
system.ruby.L1Cache_Controller.E.Load    |      221611      0.08%      0.08% |   270777799     99.64%     99.72% |      202047      0.07%     99.79% |      562208      0.21%    100.00%
system.ruby.L1Cache_Controller.E.Load::total    271763665                      
system.ruby.L1Cache_Controller.E.Store   |        9022      3.90%      3.90% |      202731     87.68%     91.59% |        6196      2.68%     94.27% |       13258      5.73%    100.00%
system.ruby.L1Cache_Controller.E.Store::total       231207                      
system.ruby.L1Cache_Controller.E.Inv     |        1429     26.50%     26.50% |        1610     29.85%     56.35% |         980     18.17%     74.52% |        1374     25.48%    100.00%
system.ruby.L1Cache_Controller.E.Inv::total         5393                      
system.ruby.L1Cache_Controller.E.L1_Replacement |       11614      0.14%      0.14% |     8093466     99.14%     99.28% |       11666      0.14%     99.42% |       47228      0.58%    100.00%
system.ruby.L1Cache_Controller.E.L1_Replacement::total      8163974                      
system.ruby.L1Cache_Controller.E.Fwd_GETX |         922     40.85%     40.85% |         259     11.48%     52.33% |         642     28.44%     80.77% |         434     19.23%    100.00%
system.ruby.L1Cache_Controller.E.Fwd_GETX::total         2257                      
system.ruby.L1Cache_Controller.E.Fwd_GETS |        2863     36.56%     36.56% |         979     12.50%     49.06% |        2544     32.48%     81.54% |        1446     18.46%    100.00%
system.ruby.L1Cache_Controller.E.Fwd_GETS::total         7832                      
system.ruby.L1Cache_Controller.M.Load    |      909521      0.44%      0.44% |   202186853     98.24%     98.68% |      765194      0.37%     99.06% |     1942535      0.94%    100.00%
system.ruby.L1Cache_Controller.M.Load::total    205804103                      
system.ruby.L1Cache_Controller.M.Store   |     1006876      0.58%      0.58% |   168230228     97.67%     98.26% |      865649      0.50%     98.76% |     2132698      1.24%    100.00%
system.ruby.L1Cache_Controller.M.Store::total    172235451                      
system.ruby.L1Cache_Controller.M.Inv     |        3031     29.93%     29.93% |        1996     19.71%     49.63% |        2018     19.92%     69.56% |        3083     30.44%    100.00%
system.ruby.L1Cache_Controller.M.Inv::total        10128                      
system.ruby.L1Cache_Controller.M.L1_Replacement |       19833      2.31%      2.31% |      792853     92.48%     94.79% |       16272      1.90%     96.69% |       28374      3.31%    100.00%
system.ruby.L1Cache_Controller.M.L1_Replacement::total       857332                      
system.ruby.L1Cache_Controller.M.Fwd_GETX |        1720     25.40%     25.40% |        1464     21.62%     47.02% |        1378     20.35%     67.37% |        2210     32.63%    100.00%
system.ruby.L1Cache_Controller.M.Fwd_GETX::total         6772                      
system.ruby.L1Cache_Controller.M.Fwd_GETS |        8019     40.55%     40.55% |        3491     17.65%     58.20% |        3867     19.55%     77.75% |        4400     22.25%    100.00%
system.ruby.L1Cache_Controller.M.Fwd_GETS::total        19777                      
system.ruby.L1Cache_Controller.IS.Data_Exclusive |       25801      0.31%      0.31% |     8299096     98.67%     98.98% |       22428      0.27%     99.25% |       63350      0.75%    100.00%
system.ruby.L1Cache_Controller.IS.Data_Exclusive::total      8410675                      
system.ruby.L1Cache_Controller.IS.DataS_fromL1 |        6823     24.71%     24.71% |        3566     12.92%     37.63% |        5762     20.87%     58.50% |       11458     41.50%    100.00%
system.ruby.L1Cache_Controller.IS.DataS_fromL1::total        27609                      
system.ruby.L1Cache_Controller.IS.Data_all_Acks |       78754      9.53%      9.53% |      617749     74.75%     84.28% |       66576      8.06%     92.33% |       63364      7.67%    100.00%
system.ruby.L1Cache_Controller.IS.Data_all_Acks::total       826443                      
system.ruby.L1Cache_Controller.IM.Data   |         128      5.09%      5.09% |         767     30.50%     35.59% |        1423     56.58%     92.17% |         197      7.83%    100.00%
system.ruby.L1Cache_Controller.IM.Data::total         2515                      
system.ruby.L1Cache_Controller.IM.Data_all_Acks |       14902      2.34%      2.34% |      591520     92.73%     95.07% |       12281      1.93%     97.00% |       19158      3.00%    100.00%
system.ruby.L1Cache_Controller.IM.Data_all_Acks::total       637861                      
system.ruby.L1Cache_Controller.SM.Inv    |           0      0.00%      0.00% |           1    100.00%    100.00% |           0      0.00%    100.00% |           0      0.00%    100.00%
system.ruby.L1Cache_Controller.SM.Inv::total            1                      
system.ruby.L1Cache_Controller.SM.Ack    |       18185     45.08%     45.08% |        8830     21.89%     66.97% |        6660     16.51%     83.48% |        6666     16.52%    100.00%
system.ruby.L1Cache_Controller.SM.Ack::total        40341                      
system.ruby.L1Cache_Controller.SM.Ack_all |        8920     36.22%     36.22% |        5200     21.12%     57.34% |        5223     21.21%     78.55% |        5283     21.45%    100.00%
system.ruby.L1Cache_Controller.SM.Ack_all::total        24626                      
system.ruby.L1Cache_Controller.M_I.WB_Ack |       31447      0.35%      0.35% |     8886319     98.50%     98.85% |       27938      0.31%     99.16% |       75602      0.84%    100.00%
system.ruby.L1Cache_Controller.M_I.WB_Ack::total      9021306                      
system.ruby.L2Cache_Controller.L1_GET_INSTR       737325      0.00%      0.00%
system.ruby.L2Cache_Controller.L1_GETS        8528117      0.00%      0.00%
system.ruby.L2Cache_Controller.L1_GETX         640382      0.00%      0.00%
system.ruby.L2Cache_Controller.L1_UPGRADE        22112      0.00%      0.00%
system.ruby.L2Cache_Controller.L1_PUTX        9021306      0.00%      0.00%
system.ruby.L2Cache_Controller.L2_Replacement        49307      0.00%      0.00%
system.ruby.L2Cache_Controller.L2_Replacement_clean       151895      0.00%      0.00%
system.ruby.L2Cache_Controller.Mem_Data        209831      0.00%      0.00%
system.ruby.L2Cache_Controller.Mem_Ack         201769      0.00%      0.00%
system.ruby.L2Cache_Controller.WB_Data          29905      0.00%      0.00%
system.ruby.L2Cache_Controller.WB_Data_clean         7832      0.00%      0.00%
system.ruby.L2Cache_Controller.Ack              17799      0.00%      0.00%
system.ruby.L2Cache_Controller.Ack_all          30016      0.00%      0.00%
system.ruby.L2Cache_Controller.Unblock          27609      0.00%      0.00%
system.ruby.L2Cache_Controller.Exclusive_Unblock      9073162      0.00%      0.00%
system.ruby.L2Cache_Controller.MEM_Inv           1136      0.00%      0.00%
system.ruby.L2Cache_Controller.NP.L1_GET_INSTR        22956      0.00%      0.00%
system.ruby.L2Cache_Controller.NP.L1_GETS       152836      0.00%      0.00%
system.ruby.L2Cache_Controller.NP.L1_GETX        34039      0.00%      0.00%
system.ruby.L2Cache_Controller.SS.L1_GET_INSTR       714357      0.00%      0.00%
system.ruby.L2Cache_Controller.SS.L1_GETS        89092      0.00%      0.00%
system.ruby.L2Cache_Controller.SS.L1_GETX         2515      0.00%      0.00%
system.ruby.L2Cache_Controller.SS.L1_UPGRADE        22111      0.00%      0.00%
system.ruby.L2Cache_Controller.SS.L2_Replacement          956      0.00%      0.00%
system.ruby.L2Cache_Controller.SS.L2_Replacement_clean        23600      0.00%      0.00%
system.ruby.L2Cache_Controller.SS.MEM_Inv           67      0.00%      0.00%
system.ruby.L2Cache_Controller.M.L1_GET_INSTR            8      0.00%      0.00%
system.ruby.L2Cache_Controller.M.L1_GETS      8257853      0.00%      0.00%
system.ruby.L2Cache_Controller.M.L1_GETX       594793      0.00%      0.00%
system.ruby.L2Cache_Controller.M.L2_Replacement        46003      0.00%      0.00%
system.ruby.L2Cache_Controller.M.L2_Replacement_clean       115319      0.00%      0.00%
system.ruby.L2Cache_Controller.M.MEM_Inv          303      0.00%      0.00%
system.ruby.L2Cache_Controller.MT.L1_GETS        27609      0.00%      0.00%
system.ruby.L2Cache_Controller.MT.L1_GETX         9029      0.00%      0.00%
system.ruby.L2Cache_Controller.MT.L1_PUTX      9021306      0.00%      0.00%
system.ruby.L2Cache_Controller.MT.L2_Replacement         2348      0.00%      0.00%
system.ruby.L2Cache_Controller.MT.L2_Replacement_clean        12975      0.00%      0.00%
system.ruby.L2Cache_Controller.MT.MEM_Inv          198      0.00%      0.00%
system.ruby.L2Cache_Controller.M_I.L1_GET_INSTR            2      0.00%      0.00%
system.ruby.L2Cache_Controller.M_I.L1_GETS            2      0.00%      0.00%
system.ruby.L2Cache_Controller.M_I.L1_GETX            2      0.00%      0.00%
system.ruby.L2Cache_Controller.M_I.Mem_Ack       201769      0.00%      0.00%
system.ruby.L2Cache_Controller.M_I.MEM_Inv          303      0.00%      0.00%
system.ruby.L2Cache_Controller.MT_I.WB_Data         2034      0.00%      0.00%
system.ruby.L2Cache_Controller.MT_I.Ack_all          512      0.00%      0.00%
system.ruby.L2Cache_Controller.MT_I.MEM_Inv          198      0.00%      0.00%
system.ruby.L2Cache_Controller.MCT_I.WB_Data         8094      0.00%      0.00%
system.ruby.L2Cache_Controller.MCT_I.Ack_all         4881      0.00%      0.00%
system.ruby.L2Cache_Controller.I_I.Ack          16586      0.00%      0.00%
system.ruby.L2Cache_Controller.I_I.Ack_all        23600      0.00%      0.00%
system.ruby.L2Cache_Controller.S_I.Ack           1213      0.00%      0.00%
system.ruby.L2Cache_Controller.S_I.Ack_all         1023      0.00%      0.00%
system.ruby.L2Cache_Controller.S_I.MEM_Inv           67      0.00%      0.00%
system.ruby.L2Cache_Controller.ISS.L1_GETS           14      0.00%      0.00%
system.ruby.L2Cache_Controller.ISS.L2_Replacement_clean            1      0.00%      0.00%
system.ruby.L2Cache_Controller.ISS.Mem_Data       152822      0.00%      0.00%
system.ruby.L2Cache_Controller.IS.L1_GET_INSTR            2      0.00%      0.00%
system.ruby.L2Cache_Controller.IS.Mem_Data        22970      0.00%      0.00%
system.ruby.L2Cache_Controller.IM.Mem_Data        34039      0.00%      0.00%
system.ruby.L2Cache_Controller.SS_MB.L1_GETS          101      0.00%      0.00%
system.ruby.L2Cache_Controller.SS_MB.L1_GETX            2      0.00%      0.00%
system.ruby.L2Cache_Controller.SS_MB.L1_UPGRADE            1      0.00%      0.00%
system.ruby.L2Cache_Controller.SS_MB.Exclusive_Unblock        24626      0.00%      0.00%
system.ruby.L2Cache_Controller.MT_MB.L1_GETS          608      0.00%      0.00%
system.ruby.L2Cache_Controller.MT_MB.L1_GETX            2      0.00%      0.00%
system.ruby.L2Cache_Controller.MT_MB.Exclusive_Unblock      9048536      0.00%      0.00%
system.ruby.L2Cache_Controller.MT_IIB.L1_GETS            2      0.00%      0.00%
system.ruby.L2Cache_Controller.MT_IIB.WB_Data        19766      0.00%      0.00%
system.ruby.L2Cache_Controller.MT_IIB.WB_Data_clean         7822      0.00%      0.00%
system.ruby.L2Cache_Controller.MT_IIB.Unblock           21      0.00%      0.00%
system.ruby.L2Cache_Controller.MT_IB.WB_Data           11      0.00%      0.00%
system.ruby.L2Cache_Controller.MT_IB.WB_Data_clean           10      0.00%      0.00%
system.ruby.L2Cache_Controller.MT_SB.Unblock        27588      0.00%      0.00%

---------- End Simulation Statistics   ----------
