
---------- Begin Simulation Statistics ----------
sim_seconds                                  1.648818                       # Number of seconds simulated
sim_ticks                                1648818461500                       # Number of ticks simulated
final_tick                               53877257964001                       # Number of ticks from beginning of simulation (restored from checkpoints and never reset)
sim_freq                                 1000000000000                       # Frequency of simulated ticks
host_inst_rate                                 121342                       # Simulator instruction rate (inst/s)
host_op_rate                                   180778                       # Simulator op (including micro ops) rate (op/s)
host_tick_rate                              276084038                       # Simulator tick rate (ticks/s)
host_mem_usage                                1799816                       # Number of bytes of host memory used
host_seconds                                  5972.16                       # Real time elapsed on the host
sim_insts                                   724671038                       # Number of instructions simulated
sim_ops                                    1079633789                       # Number of ops (including micro ops) simulated
system.voltage_domain.voltage                       1                       # Voltage in Volts
system.clk_domain.clock                          1000                       # Clock period in ticks
system.mem_ctrls0.bytes_read::ruby.dir_cntrl0    187239744                       # Number of bytes read from this memory
system.mem_ctrls0.bytes_read::total         187239744                       # Number of bytes read from this memory
system.mem_ctrls0.bytes_written::ruby.dir_cntrl0     85101440                       # Number of bytes written to this memory
system.mem_ctrls0.bytes_written::total       85101440                       # Number of bytes written to this memory
system.mem_ctrls0.num_reads::ruby.dir_cntrl0      2925621                       # Number of read requests responded to by this memory
system.mem_ctrls0.num_reads::total            2925621                       # Number of read requests responded to by this memory
system.mem_ctrls0.num_writes::ruby.dir_cntrl0      1329710                       # Number of write requests responded to by this memory
system.mem_ctrls0.num_writes::total           1329710                       # Number of write requests responded to by this memory
system.mem_ctrls0.bw_read::ruby.dir_cntrl0    113559951                       # Total read bandwidth from this memory (bytes/s)
system.mem_ctrls0.bw_read::total            113559951                       # Total read bandwidth from this memory (bytes/s)
system.mem_ctrls0.bw_write::ruby.dir_cntrl0     51613590                       # Write bandwidth from this memory (bytes/s)
system.mem_ctrls0.bw_write::total            51613590                       # Write bandwidth from this memory (bytes/s)
system.mem_ctrls0.bw_total::ruby.dir_cntrl0    165173541                       # Total bandwidth to/from this memory (bytes/s)
system.mem_ctrls0.bw_total::total           165173541                       # Total bandwidth to/from this memory (bytes/s)
system.mem_ctrls0.readReqs                    2925621                       # Number of read requests accepted
system.mem_ctrls0.writeReqs                   1329710                       # Number of write requests accepted
system.mem_ctrls0.readBursts                  2925621                       # Number of DRAM read bursts, including those serviced by the write queue
system.mem_ctrls0.writeBursts                 1329710                       # Number of DRAM write bursts, including those merged in the write queue
system.mem_ctrls0.bytesReadDRAM             187150080                       # Total number of bytes read from DRAM
system.mem_ctrls0.bytesReadWrQ                  89664                       # Total number of bytes read from write queue
system.mem_ctrls0.bytesWritten               85081472                       # Total number of bytes written to DRAM
system.mem_ctrls0.bytesReadSys              187239744                       # Total read bytes from the system interface side
system.mem_ctrls0.bytesWrittenSys            85101440                       # Total written bytes from the system interface side
system.mem_ctrls0.servicedByWrQ                  1401                       # Number of DRAM read bursts serviced by the write queue
system.mem_ctrls0.mergedWrBursts                  293                       # Number of DRAM write bursts merged with an existing one
system.mem_ctrls0.neitherReadNorWriteReqs            0                       # Number of requests that are neither read nor write
system.mem_ctrls0.perBankRdBursts::0           184582                       # Per bank write bursts
system.mem_ctrls0.perBankRdBursts::1           183722                       # Per bank write bursts
system.mem_ctrls0.perBankRdBursts::2           182758                       # Per bank write bursts
system.mem_ctrls0.perBankRdBursts::3           182755                       # Per bank write bursts
system.mem_ctrls0.perBankRdBursts::4           182593                       # Per bank write bursts
system.mem_ctrls0.perBankRdBursts::5           181979                       # Per bank write bursts
system.mem_ctrls0.perBankRdBursts::6           182126                       # Per bank write bursts
system.mem_ctrls0.perBankRdBursts::7           181889                       # Per bank write bursts
system.mem_ctrls0.perBankRdBursts::8           182074                       # Per bank write bursts
system.mem_ctrls0.perBankRdBursts::9           181818                       # Per bank write bursts
system.mem_ctrls0.perBankRdBursts::10          181709                       # Per bank write bursts
system.mem_ctrls0.perBankRdBursts::11          182200                       # Per bank write bursts
system.mem_ctrls0.perBankRdBursts::12          182758                       # Per bank write bursts
system.mem_ctrls0.perBankRdBursts::13          182742                       # Per bank write bursts
system.mem_ctrls0.perBankRdBursts::14          183533                       # Per bank write bursts
system.mem_ctrls0.perBankRdBursts::15          184982                       # Per bank write bursts
system.mem_ctrls0.perBankWrBursts::0            84498                       # Per bank write bursts
system.mem_ctrls0.perBankWrBursts::1            84222                       # Per bank write bursts
system.mem_ctrls0.perBankWrBursts::2            82809                       # Per bank write bursts
system.mem_ctrls0.perBankWrBursts::3            82724                       # Per bank write bursts
system.mem_ctrls0.perBankWrBursts::4            82721                       # Per bank write bursts
system.mem_ctrls0.perBankWrBursts::5            82641                       # Per bank write bursts
system.mem_ctrls0.perBankWrBursts::6            82366                       # Per bank write bursts
system.mem_ctrls0.perBankWrBursts::7            82488                       # Per bank write bursts
system.mem_ctrls0.perBankWrBursts::8            82590                       # Per bank write bursts
system.mem_ctrls0.perBankWrBursts::9            82476                       # Per bank write bursts
system.mem_ctrls0.perBankWrBursts::10           82426                       # Per bank write bursts
system.mem_ctrls0.perBankWrBursts::11           82747                       # Per bank write bursts
system.mem_ctrls0.perBankWrBursts::12           83239                       # Per bank write bursts
system.mem_ctrls0.perBankWrBursts::13           83185                       # Per bank write bursts
system.mem_ctrls0.perBankWrBursts::14           83887                       # Per bank write bursts
system.mem_ctrls0.perBankWrBursts::15           84379                       # Per bank write bursts
system.mem_ctrls0.numRdRetry                        0                       # Number of times read queue was full causing retry
system.mem_ctrls0.numWrRetry                        0                       # Number of times write queue was full causing retry
system.mem_ctrls0.totGap                 1648818460500                       # Total gap between requests
system.mem_ctrls0.readPktSize::0                    0                       # Read request sizes (log2)
system.mem_ctrls0.readPktSize::1                    0                       # Read request sizes (log2)
system.mem_ctrls0.readPktSize::2                    0                       # Read request sizes (log2)
system.mem_ctrls0.readPktSize::3                    0                       # Read request sizes (log2)
system.mem_ctrls0.readPktSize::4                    0                       # Read request sizes (log2)
system.mem_ctrls0.readPktSize::5                    0                       # Read request sizes (log2)
system.mem_ctrls0.readPktSize::6              2925621                       # Read request sizes (log2)
system.mem_ctrls0.writePktSize::0                   0                       # Write request sizes (log2)
system.mem_ctrls0.writePktSize::1                   0                       # Write request sizes (log2)
system.mem_ctrls0.writePktSize::2                   0                       # Write request sizes (log2)
system.mem_ctrls0.writePktSize::3                   0                       # Write request sizes (log2)
system.mem_ctrls0.writePktSize::4                   0                       # Write request sizes (log2)
system.mem_ctrls0.writePktSize::5                   0                       # Write request sizes (log2)
system.mem_ctrls0.writePktSize::6             1329710                       # Write request sizes (log2)
system.mem_ctrls0.rdQLenPdf::0                2923911                       # What read queue length does an incoming req see
system.mem_ctrls0.rdQLenPdf::1                    308                       # What read queue length does an incoming req see
system.mem_ctrls0.rdQLenPdf::2                      1                       # What read queue length does an incoming req see
system.mem_ctrls0.rdQLenPdf::3                      0                       # What read queue length does an incoming req see
system.mem_ctrls0.rdQLenPdf::4                      0                       # What read queue length does an incoming req see
system.mem_ctrls0.rdQLenPdf::5                      0                       # What read queue length does an incoming req see
system.mem_ctrls0.rdQLenPdf::6                      0                       # What read queue length does an incoming req see
system.mem_ctrls0.rdQLenPdf::7                      0                       # What read queue length does an incoming req see
system.mem_ctrls0.rdQLenPdf::8                      0                       # What read queue length does an incoming req see
system.mem_ctrls0.rdQLenPdf::9                      0                       # What read queue length does an incoming req see
system.mem_ctrls0.rdQLenPdf::10                     0                       # What read queue length does an incoming req see
system.mem_ctrls0.rdQLenPdf::11                     0                       # What read queue length does an incoming req see
system.mem_ctrls0.rdQLenPdf::12                     0                       # What read queue length does an incoming req see
system.mem_ctrls0.rdQLenPdf::13                     0                       # What read queue length does an incoming req see
system.mem_ctrls0.rdQLenPdf::14                     0                       # What read queue length does an incoming req see
system.mem_ctrls0.rdQLenPdf::15                     0                       # What read queue length does an incoming req see
system.mem_ctrls0.rdQLenPdf::16                     0                       # What read queue length does an incoming req see
system.mem_ctrls0.rdQLenPdf::17                     0                       # What read queue length does an incoming req see
system.mem_ctrls0.rdQLenPdf::18                     0                       # What read queue length does an incoming req see
system.mem_ctrls0.rdQLenPdf::19                     0                       # What read queue length does an incoming req see
system.mem_ctrls0.rdQLenPdf::20                     0                       # What read queue length does an incoming req see
system.mem_ctrls0.rdQLenPdf::21                     0                       # What read queue length does an incoming req see
system.mem_ctrls0.rdQLenPdf::22                     0                       # What read queue length does an incoming req see
system.mem_ctrls0.rdQLenPdf::23                     0                       # What read queue length does an incoming req see
system.mem_ctrls0.rdQLenPdf::24                     0                       # What read queue length does an incoming req see
system.mem_ctrls0.rdQLenPdf::25                     0                       # What read queue length does an incoming req see
system.mem_ctrls0.rdQLenPdf::26                     0                       # What read queue length does an incoming req see
system.mem_ctrls0.rdQLenPdf::27                     0                       # What read queue length does an incoming req see
system.mem_ctrls0.rdQLenPdf::28                     0                       # What read queue length does an incoming req see
system.mem_ctrls0.rdQLenPdf::29                     0                       # What read queue length does an incoming req see
system.mem_ctrls0.rdQLenPdf::30                     0                       # What read queue length does an incoming req see
system.mem_ctrls0.rdQLenPdf::31                     0                       # What read queue length does an incoming req see
system.mem_ctrls0.wrQLenPdf::0                      1                       # What write queue length does an incoming req see
system.mem_ctrls0.wrQLenPdf::1                      1                       # What write queue length does an incoming req see
system.mem_ctrls0.wrQLenPdf::2                      1                       # What write queue length does an incoming req see
system.mem_ctrls0.wrQLenPdf::3                      1                       # What write queue length does an incoming req see
system.mem_ctrls0.wrQLenPdf::4                      1                       # What write queue length does an incoming req see
system.mem_ctrls0.wrQLenPdf::5                      1                       # What write queue length does an incoming req see
system.mem_ctrls0.wrQLenPdf::6                      1                       # What write queue length does an incoming req see
system.mem_ctrls0.wrQLenPdf::7                      1                       # What write queue length does an incoming req see
system.mem_ctrls0.wrQLenPdf::8                      1                       # What write queue length does an incoming req see
system.mem_ctrls0.wrQLenPdf::9                      1                       # What write queue length does an incoming req see
system.mem_ctrls0.wrQLenPdf::10                     1                       # What write queue length does an incoming req see
system.mem_ctrls0.wrQLenPdf::11                     1                       # What write queue length does an incoming req see
system.mem_ctrls0.wrQLenPdf::12                     1                       # What write queue length does an incoming req see
system.mem_ctrls0.wrQLenPdf::13                     1                       # What write queue length does an incoming req see
system.mem_ctrls0.wrQLenPdf::14                     1                       # What write queue length does an incoming req see
system.mem_ctrls0.wrQLenPdf::15                 53333                       # What write queue length does an incoming req see
system.mem_ctrls0.wrQLenPdf::16                 56842                       # What write queue length does an incoming req see
system.mem_ctrls0.wrQLenPdf::17                 71586                       # What write queue length does an incoming req see
system.mem_ctrls0.wrQLenPdf::18                 76484                       # What write queue length does an incoming req see
system.mem_ctrls0.wrQLenPdf::19                 77050                       # What write queue length does an incoming req see
system.mem_ctrls0.wrQLenPdf::20                 76998                       # What write queue length does an incoming req see
system.mem_ctrls0.wrQLenPdf::21                 76904                       # What write queue length does an incoming req see
system.mem_ctrls0.wrQLenPdf::22                 76887                       # What write queue length does an incoming req see
system.mem_ctrls0.wrQLenPdf::23                 76749                       # What write queue length does an incoming req see
system.mem_ctrls0.wrQLenPdf::24                 76786                       # What write queue length does an incoming req see
system.mem_ctrls0.wrQLenPdf::25                 76847                       # What write queue length does an incoming req see
system.mem_ctrls0.wrQLenPdf::26                 76576                       # What write queue length does an incoming req see
system.mem_ctrls0.wrQLenPdf::27                 76402                       # What write queue length does an incoming req see
system.mem_ctrls0.wrQLenPdf::28                 76254                       # What write queue length does an incoming req see
system.mem_ctrls0.wrQLenPdf::29                 76293                       # What write queue length does an incoming req see
system.mem_ctrls0.wrQLenPdf::30                 75789                       # What write queue length does an incoming req see
system.mem_ctrls0.wrQLenPdf::31                 75684                       # What write queue length does an incoming req see
system.mem_ctrls0.wrQLenPdf::32                 75729                       # What write queue length does an incoming req see
system.mem_ctrls0.wrQLenPdf::33                   162                       # What write queue length does an incoming req see
system.mem_ctrls0.wrQLenPdf::34                    33                       # What write queue length does an incoming req see
system.mem_ctrls0.wrQLenPdf::35                    11                       # What write queue length does an incoming req see
system.mem_ctrls0.wrQLenPdf::36                     3                       # What write queue length does an incoming req see
system.mem_ctrls0.wrQLenPdf::37                     0                       # What write queue length does an incoming req see
system.mem_ctrls0.wrQLenPdf::38                     0                       # What write queue length does an incoming req see
system.mem_ctrls0.wrQLenPdf::39                     0                       # What write queue length does an incoming req see
system.mem_ctrls0.wrQLenPdf::40                     0                       # What write queue length does an incoming req see
system.mem_ctrls0.wrQLenPdf::41                     0                       # What write queue length does an incoming req see
system.mem_ctrls0.wrQLenPdf::42                     0                       # What write queue length does an incoming req see
system.mem_ctrls0.wrQLenPdf::43                     0                       # What write queue length does an incoming req see
system.mem_ctrls0.wrQLenPdf::44                     0                       # What write queue length does an incoming req see
system.mem_ctrls0.wrQLenPdf::45                     0                       # What write queue length does an incoming req see
system.mem_ctrls0.wrQLenPdf::46                     0                       # What write queue length does an incoming req see
system.mem_ctrls0.wrQLenPdf::47                     0                       # What write queue length does an incoming req see
system.mem_ctrls0.wrQLenPdf::48                     0                       # What write queue length does an incoming req see
system.mem_ctrls0.wrQLenPdf::49                     0                       # What write queue length does an incoming req see
system.mem_ctrls0.wrQLenPdf::50                     0                       # What write queue length does an incoming req see
system.mem_ctrls0.wrQLenPdf::51                     0                       # What write queue length does an incoming req see
system.mem_ctrls0.wrQLenPdf::52                     0                       # What write queue length does an incoming req see
system.mem_ctrls0.wrQLenPdf::53                     0                       # What write queue length does an incoming req see
system.mem_ctrls0.wrQLenPdf::54                     0                       # What write queue length does an incoming req see
system.mem_ctrls0.wrQLenPdf::55                     0                       # What write queue length does an incoming req see
system.mem_ctrls0.wrQLenPdf::56                     0                       # What write queue length does an incoming req see
system.mem_ctrls0.wrQLenPdf::57                     0                       # What write queue length does an incoming req see
system.mem_ctrls0.wrQLenPdf::58                     0                       # What write queue length does an incoming req see
system.mem_ctrls0.wrQLenPdf::59                     0                       # What write queue length does an incoming req see
system.mem_ctrls0.wrQLenPdf::60                     0                       # What write queue length does an incoming req see
system.mem_ctrls0.wrQLenPdf::61                     0                       # What write queue length does an incoming req see
system.mem_ctrls0.wrQLenPdf::62                     0                       # What write queue length does an incoming req see
system.mem_ctrls0.wrQLenPdf::63                     0                       # What write queue length does an incoming req see
system.mem_ctrls0.bytesPerActivate::samples      1903523                       # Bytes accessed per row activation
system.mem_ctrls0.bytesPerActivate::mean   143.014652                       # Bytes accessed per row activation
system.mem_ctrls0.bytesPerActivate::gmean    89.971542                       # Bytes accessed per row activation
system.mem_ctrls0.bytesPerActivate::stdev   215.861596                       # Bytes accessed per row activation
system.mem_ctrls0.bytesPerActivate::0-127      1510552     79.36%     79.36% # Bytes accessed per row activation
system.mem_ctrls0.bytesPerActivate::128-255       153109      8.04%     87.40% # Bytes accessed per row activation
system.mem_ctrls0.bytesPerActivate::256-383        58837      3.09%     90.49% # Bytes accessed per row activation
system.mem_ctrls0.bytesPerActivate::384-511        37736      1.98%     92.47% # Bytes accessed per row activation
system.mem_ctrls0.bytesPerActivate::512-639        26296      1.38%     93.85% # Bytes accessed per row activation
system.mem_ctrls0.bytesPerActivate::640-767        23356      1.23%     95.08% # Bytes accessed per row activation
system.mem_ctrls0.bytesPerActivate::768-895        12159      0.64%     95.72% # Bytes accessed per row activation
system.mem_ctrls0.bytesPerActivate::896-1023        21929      1.15%     96.87% # Bytes accessed per row activation
system.mem_ctrls0.bytesPerActivate::1024-1151        59549      3.13%    100.00% # Bytes accessed per row activation
system.mem_ctrls0.bytesPerActivate::total      1903523                       # Bytes accessed per row activation
system.mem_ctrls0.rdPerTurnAround::samples        75674                       # Reads before turning the bus around for writes
system.mem_ctrls0.rdPerTurnAround::mean     38.742778                       # Reads before turning the bus around for writes
system.mem_ctrls0.rdPerTurnAround::stdev  1189.006910                       # Reads before turning the bus around for writes
system.mem_ctrls0.rdPerTurnAround::0-8191        75665     99.99%     99.99% # Reads before turning the bus around for writes
system.mem_ctrls0.rdPerTurnAround::8192-16383            3      0.00%     99.99% # Reads before turning the bus around for writes
system.mem_ctrls0.rdPerTurnAround::24576-32767            1      0.00%     99.99% # Reads before turning the bus around for writes
system.mem_ctrls0.rdPerTurnAround::57344-65535            1      0.00%     99.99% # Reads before turning the bus around for writes
system.mem_ctrls0.rdPerTurnAround::73728-81919            1      0.00%    100.00% # Reads before turning the bus around for writes
system.mem_ctrls0.rdPerTurnAround::139264-147455            1      0.00%    100.00% # Reads before turning the bus around for writes
system.mem_ctrls0.rdPerTurnAround::155648-163839            1      0.00%    100.00% # Reads before turning the bus around for writes
system.mem_ctrls0.rdPerTurnAround::221184-229375            1      0.00%    100.00% # Reads before turning the bus around for writes
system.mem_ctrls0.rdPerTurnAround::total        75674                       # Reads before turning the bus around for writes
system.mem_ctrls0.wrPerTurnAround::samples        75674                       # Writes before turning the bus around for reads
system.mem_ctrls0.wrPerTurnAround::mean     17.567434                       # Writes before turning the bus around for reads
system.mem_ctrls0.wrPerTurnAround::gmean    17.537811                       # Writes before turning the bus around for reads
system.mem_ctrls0.wrPerTurnAround::stdev     1.012446                       # Writes before turning the bus around for reads
system.mem_ctrls0.wrPerTurnAround::16           19222     25.40%     25.40% # Writes before turning the bus around for reads
system.mem_ctrls0.wrPerTurnAround::17            2250      2.97%     28.37% # Writes before turning the bus around for reads
system.mem_ctrls0.wrPerTurnAround::18           47988     63.41%     91.79% # Writes before turning the bus around for reads
system.mem_ctrls0.wrPerTurnAround::19            4878      6.45%     98.23% # Writes before turning the bus around for reads
system.mem_ctrls0.wrPerTurnAround::20            1038      1.37%     99.61% # Writes before turning the bus around for reads
system.mem_ctrls0.wrPerTurnAround::21             217      0.29%     99.89% # Writes before turning the bus around for reads
system.mem_ctrls0.wrPerTurnAround::22              60      0.08%     99.97% # Writes before turning the bus around for reads
system.mem_ctrls0.wrPerTurnAround::23              15      0.02%     99.99% # Writes before turning the bus around for reads
system.mem_ctrls0.wrPerTurnAround::24               4      0.01%    100.00% # Writes before turning the bus around for reads
system.mem_ctrls0.wrPerTurnAround::26               2      0.00%    100.00% # Writes before turning the bus around for reads
system.mem_ctrls0.wrPerTurnAround::total        75674                       # Writes before turning the bus around for reads
system.mem_ctrls0.totQLat                 33539099249                       # Total ticks spent queuing
system.mem_ctrls0.totMemAccLat            88368224249                       # Total ticks spent from burst creation until serviced by the DRAM
system.mem_ctrls0.totBusLat               14621100000                       # Total ticks spent in databus transfers
system.mem_ctrls0.avgQLat                    11469.42                       # Average queueing delay per DRAM burst
system.mem_ctrls0.avgBusLat                   5000.00                       # Average bus latency per DRAM burst
system.mem_ctrls0.avgMemAccLat               30219.42                       # Average memory access latency per DRAM burst
system.mem_ctrls0.avgRdBW                      113.51                       # Average DRAM read bandwidth in MiByte/s
system.mem_ctrls0.avgWrBW                       51.60                       # Average achieved write bandwidth in MiByte/s
system.mem_ctrls0.avgRdBWSys                   113.56                       # Average system read bandwidth in MiByte/s
system.mem_ctrls0.avgWrBWSys                    51.61                       # Average system write bandwidth in MiByte/s
system.mem_ctrls0.peakBW                     12800.00                       # Theoretical peak bandwidth in MiByte/s
system.mem_ctrls0.busUtil                        1.29                       # Data bus utilization in percentage
system.mem_ctrls0.busUtilRead                    0.89                       # Data bus utilization in percentage for reads
system.mem_ctrls0.busUtilWrite                   0.40                       # Data bus utilization in percentage for writes
system.mem_ctrls0.avgRdQLen                      1.00                       # Average read queue length when enqueuing
system.mem_ctrls0.avgWrQLen                     24.65                       # Average write queue length when enqueuing
system.mem_ctrls0.readRowHits                 1851150                       # Number of row buffer hits during reads
system.mem_ctrls0.writeRowHits                 498946                       # Number of row buffer hits during writes
system.mem_ctrls0.readRowHitRate                63.30                       # Row buffer hit rate for reads
system.mem_ctrls0.writeRowHitRate               37.53                       # Row buffer hit rate for writes
system.mem_ctrls0.avgGap                    387471.26                       # Average gap between requests
system.mem_ctrls0.pageHitRate                   55.25                       # Row buffer hit rate, read and write combined
system.mem_ctrls0_0.actEnergy              7209798120                       # Energy for activate commands per rank (pJ)
system.mem_ctrls0_0.preEnergy              3933917625                       # Energy for precharge commands per rank (pJ)
system.mem_ctrls0_0.readEnergy            11429113800                       # Energy for read commands per rank (pJ)
system.mem_ctrls0_0.writeEnergy            4305759120                       # Energy for write commands per rank (pJ)
system.mem_ctrls0_0.refreshEnergy        107908803600                       # Energy for refresh commands per rank (pJ)
system.mem_ctrls0_0.actBackEnergy        494250018435                       # Energy for active background per rank (pJ)
system.mem_ctrls0_0.preBackEnergy        557722782000                       # Energy for precharge background per rank (pJ)
system.mem_ctrls0_0.totalEnergy          1186760192700                       # Total energy per rank (pJ)
system.mem_ctrls0_0.averagePower           718.323177                       # Core power per rank (mW)
system.mem_ctrls0_0.memoryStateTime::IDLE 922898487000                       # Time in different power states
system.mem_ctrls0_0.memoryStateTime::REF  55057860000                       # Time in different power states
system.mem_ctrls0_0.memoryStateTime::PRE_PDN            0                       # Time in different power states
system.mem_ctrls0_0.memoryStateTime::ACT 670862126000                       # Time in different power states
system.mem_ctrls0_0.memoryStateTime::ACT_PDN            0                       # Time in different power states
system.mem_ctrls0_1.actEnergy              7199493840                       # Energy for activate commands per rank (pJ)
system.mem_ctrls0_1.preEnergy              3928295250                       # Energy for precharge commands per rank (pJ)
system.mem_ctrls0_1.readEnergy            11439472200                       # Energy for read commands per rank (pJ)
system.mem_ctrls0_1.writeEnergy            4308739920                       # Energy for write commands per rank (pJ)
system.mem_ctrls0_1.refreshEnergy        107908803600                       # Energy for refresh commands per rank (pJ)
system.mem_ctrls0_1.actBackEnergy        495054014265                       # Energy for active background per rank (pJ)
system.mem_ctrls0_1.preBackEnergy        557017522500                       # Energy for precharge background per rank (pJ)
system.mem_ctrls0_1.totalEnergy          1186856341575                       # Total energy per rank (pJ)
system.mem_ctrls0_1.averagePower           718.381374                       # Core power per rank (mW)
system.mem_ctrls0_1.memoryStateTime::IDLE 922330294250                       # Time in different power states
system.mem_ctrls0_1.memoryStateTime::REF  55057860000                       # Time in different power states
system.mem_ctrls0_1.memoryStateTime::PRE_PDN            0                       # Time in different power states
system.mem_ctrls0_1.memoryStateTime::ACT 671435932000                       # Time in different power states
system.mem_ctrls0_1.memoryStateTime::ACT_PDN            0                       # Time in different power states
system.mem_ctrls1.bytes_read::ruby.dir_cntrl1    187304192                       # Number of bytes read from this memory
system.mem_ctrls1.bytes_read::total         187304192                       # Number of bytes read from this memory
system.mem_ctrls1.bytes_written::ruby.dir_cntrl1     85191104                       # Number of bytes written to this memory
system.mem_ctrls1.bytes_written::total       85191104                       # Number of bytes written to this memory
system.mem_ctrls1.num_reads::ruby.dir_cntrl1      2926628                       # Number of read requests responded to by this memory
system.mem_ctrls1.num_reads::total            2926628                       # Number of read requests responded to by this memory
system.mem_ctrls1.num_writes::ruby.dir_cntrl1      1331111                       # Number of write requests responded to by this memory
system.mem_ctrls1.num_writes::total           1331111                       # Number of write requests responded to by this memory
system.mem_ctrls1.bw_read::ruby.dir_cntrl1    113599039                       # Total read bandwidth from this memory (bytes/s)
system.mem_ctrls1.bw_read::total            113599039                       # Total read bandwidth from this memory (bytes/s)
system.mem_ctrls1.bw_write::ruby.dir_cntrl1     51667971                       # Write bandwidth from this memory (bytes/s)
system.mem_ctrls1.bw_write::total            51667971                       # Write bandwidth from this memory (bytes/s)
system.mem_ctrls1.bw_total::ruby.dir_cntrl1    165267009                       # Total bandwidth to/from this memory (bytes/s)
system.mem_ctrls1.bw_total::total           165267009                       # Total bandwidth to/from this memory (bytes/s)
system.mem_ctrls1.readReqs                    2926628                       # Number of read requests accepted
system.mem_ctrls1.writeReqs                   1331111                       # Number of write requests accepted
system.mem_ctrls1.readBursts                  2926628                       # Number of DRAM read bursts, including those serviced by the write queue
system.mem_ctrls1.writeBursts                 1331111                       # Number of DRAM write bursts, including those merged in the write queue
system.mem_ctrls1.bytesReadDRAM             187220416                       # Total number of bytes read from DRAM
system.mem_ctrls1.bytesReadWrQ                  83776                       # Total number of bytes read from write queue
system.mem_ctrls1.bytesWritten               85175360                       # Total number of bytes written to DRAM
system.mem_ctrls1.bytesReadSys              187304192                       # Total read bytes from the system interface side
system.mem_ctrls1.bytesWrittenSys            85191104                       # Total written bytes from the system interface side
system.mem_ctrls1.servicedByWrQ                  1309                       # Number of DRAM read bursts serviced by the write queue
system.mem_ctrls1.mergedWrBursts                  220                       # Number of DRAM write bursts merged with an existing one
system.mem_ctrls1.neitherReadNorWriteReqs            0                       # Number of requests that are neither read nor write
system.mem_ctrls1.perBankRdBursts::0           184803                       # Per bank write bursts
system.mem_ctrls1.perBankRdBursts::1           183970                       # Per bank write bursts
system.mem_ctrls1.perBankRdBursts::2           182764                       # Per bank write bursts
system.mem_ctrls1.perBankRdBursts::3           182588                       # Per bank write bursts
system.mem_ctrls1.perBankRdBursts::4           182473                       # Per bank write bursts
system.mem_ctrls1.perBankRdBursts::5           182057                       # Per bank write bursts
system.mem_ctrls1.perBankRdBursts::6           182020                       # Per bank write bursts
system.mem_ctrls1.perBankRdBursts::7           181956                       # Per bank write bursts
system.mem_ctrls1.perBankRdBursts::8           182188                       # Per bank write bursts
system.mem_ctrls1.perBankRdBursts::9           181873                       # Per bank write bursts
system.mem_ctrls1.perBankRdBursts::10          181810                       # Per bank write bursts
system.mem_ctrls1.perBankRdBursts::11          182410                       # Per bank write bursts
system.mem_ctrls1.perBankRdBursts::12          183048                       # Per bank write bursts
system.mem_ctrls1.perBankRdBursts::13          182774                       # Per bank write bursts
system.mem_ctrls1.perBankRdBursts::14          183637                       # Per bank write bursts
system.mem_ctrls1.perBankRdBursts::15          184948                       # Per bank write bursts
system.mem_ctrls1.perBankWrBursts::0            84492                       # Per bank write bursts
system.mem_ctrls1.perBankWrBursts::1            84298                       # Per bank write bursts
system.mem_ctrls1.perBankWrBursts::2            82851                       # Per bank write bursts
system.mem_ctrls1.perBankWrBursts::3            82849                       # Per bank write bursts
system.mem_ctrls1.perBankWrBursts::4            82647                       # Per bank write bursts
system.mem_ctrls1.perBankWrBursts::5            82763                       # Per bank write bursts
system.mem_ctrls1.perBankWrBursts::6            82504                       # Per bank write bursts
system.mem_ctrls1.perBankWrBursts::7            82567                       # Per bank write bursts
system.mem_ctrls1.perBankWrBursts::8            82690                       # Per bank write bursts
system.mem_ctrls1.perBankWrBursts::9            82574                       # Per bank write bursts
system.mem_ctrls1.perBankWrBursts::10           82567                       # Per bank write bursts
system.mem_ctrls1.perBankWrBursts::11           82891                       # Per bank write bursts
system.mem_ctrls1.perBankWrBursts::12           83467                       # Per bank write bursts
system.mem_ctrls1.perBankWrBursts::13           83263                       # Per bank write bursts
system.mem_ctrls1.perBankWrBursts::14           84030                       # Per bank write bursts
system.mem_ctrls1.perBankWrBursts::15           84412                       # Per bank write bursts
system.mem_ctrls1.numRdRetry                        0                       # Number of times read queue was full causing retry
system.mem_ctrls1.numWrRetry                        0                       # Number of times write queue was full causing retry
system.mem_ctrls1.totGap                 1648818247000                       # Total gap between requests
system.mem_ctrls1.readPktSize::0                    0                       # Read request sizes (log2)
system.mem_ctrls1.readPktSize::1                    0                       # Read request sizes (log2)
system.mem_ctrls1.readPktSize::2                    0                       # Read request sizes (log2)
system.mem_ctrls1.readPktSize::3                    0                       # Read request sizes (log2)
system.mem_ctrls1.readPktSize::4                    0                       # Read request sizes (log2)
system.mem_ctrls1.readPktSize::5                    0                       # Read request sizes (log2)
system.mem_ctrls1.readPktSize::6              2926628                       # Read request sizes (log2)
system.mem_ctrls1.writePktSize::0                   0                       # Write request sizes (log2)
system.mem_ctrls1.writePktSize::1                   0                       # Write request sizes (log2)
system.mem_ctrls1.writePktSize::2                   0                       # Write request sizes (log2)
system.mem_ctrls1.writePktSize::3                   0                       # Write request sizes (log2)
system.mem_ctrls1.writePktSize::4                   0                       # Write request sizes (log2)
system.mem_ctrls1.writePktSize::5                   0                       # Write request sizes (log2)
system.mem_ctrls1.writePktSize::6             1331111                       # Write request sizes (log2)
system.mem_ctrls1.rdQLenPdf::0                2925120                       # What read queue length does an incoming req see
system.mem_ctrls1.rdQLenPdf::1                    197                       # What read queue length does an incoming req see
system.mem_ctrls1.rdQLenPdf::2                      2                       # What read queue length does an incoming req see
system.mem_ctrls1.rdQLenPdf::3                      0                       # What read queue length does an incoming req see
system.mem_ctrls1.rdQLenPdf::4                      0                       # What read queue length does an incoming req see
system.mem_ctrls1.rdQLenPdf::5                      0                       # What read queue length does an incoming req see
system.mem_ctrls1.rdQLenPdf::6                      0                       # What read queue length does an incoming req see
system.mem_ctrls1.rdQLenPdf::7                      0                       # What read queue length does an incoming req see
system.mem_ctrls1.rdQLenPdf::8                      0                       # What read queue length does an incoming req see
system.mem_ctrls1.rdQLenPdf::9                      0                       # What read queue length does an incoming req see
system.mem_ctrls1.rdQLenPdf::10                     0                       # What read queue length does an incoming req see
system.mem_ctrls1.rdQLenPdf::11                     0                       # What read queue length does an incoming req see
system.mem_ctrls1.rdQLenPdf::12                     0                       # What read queue length does an incoming req see
system.mem_ctrls1.rdQLenPdf::13                     0                       # What read queue length does an incoming req see
system.mem_ctrls1.rdQLenPdf::14                     0                       # What read queue length does an incoming req see
system.mem_ctrls1.rdQLenPdf::15                     0                       # What read queue length does an incoming req see
system.mem_ctrls1.rdQLenPdf::16                     0                       # What read queue length does an incoming req see
system.mem_ctrls1.rdQLenPdf::17                     0                       # What read queue length does an incoming req see
system.mem_ctrls1.rdQLenPdf::18                     0                       # What read queue length does an incoming req see
system.mem_ctrls1.rdQLenPdf::19                     0                       # What read queue length does an incoming req see
system.mem_ctrls1.rdQLenPdf::20                     0                       # What read queue length does an incoming req see
system.mem_ctrls1.rdQLenPdf::21                     0                       # What read queue length does an incoming req see
system.mem_ctrls1.rdQLenPdf::22                     0                       # What read queue length does an incoming req see
system.mem_ctrls1.rdQLenPdf::23                     0                       # What read queue length does an incoming req see
system.mem_ctrls1.rdQLenPdf::24                     0                       # What read queue length does an incoming req see
system.mem_ctrls1.rdQLenPdf::25                     0                       # What read queue length does an incoming req see
system.mem_ctrls1.rdQLenPdf::26                     0                       # What read queue length does an incoming req see
system.mem_ctrls1.rdQLenPdf::27                     0                       # What read queue length does an incoming req see
system.mem_ctrls1.rdQLenPdf::28                     0                       # What read queue length does an incoming req see
system.mem_ctrls1.rdQLenPdf::29                     0                       # What read queue length does an incoming req see
system.mem_ctrls1.rdQLenPdf::30                     0                       # What read queue length does an incoming req see
system.mem_ctrls1.rdQLenPdf::31                     0                       # What read queue length does an incoming req see
system.mem_ctrls1.wrQLenPdf::0                      1                       # What write queue length does an incoming req see
system.mem_ctrls1.wrQLenPdf::1                      1                       # What write queue length does an incoming req see
system.mem_ctrls1.wrQLenPdf::2                      1                       # What write queue length does an incoming req see
system.mem_ctrls1.wrQLenPdf::3                      1                       # What write queue length does an incoming req see
system.mem_ctrls1.wrQLenPdf::4                      1                       # What write queue length does an incoming req see
system.mem_ctrls1.wrQLenPdf::5                      1                       # What write queue length does an incoming req see
system.mem_ctrls1.wrQLenPdf::6                      1                       # What write queue length does an incoming req see
system.mem_ctrls1.wrQLenPdf::7                      1                       # What write queue length does an incoming req see
system.mem_ctrls1.wrQLenPdf::8                      1                       # What write queue length does an incoming req see
system.mem_ctrls1.wrQLenPdf::9                      1                       # What write queue length does an incoming req see
system.mem_ctrls1.wrQLenPdf::10                     1                       # What write queue length does an incoming req see
system.mem_ctrls1.wrQLenPdf::11                     1                       # What write queue length does an incoming req see
system.mem_ctrls1.wrQLenPdf::12                     1                       # What write queue length does an incoming req see
system.mem_ctrls1.wrQLenPdf::13                     1                       # What write queue length does an incoming req see
system.mem_ctrls1.wrQLenPdf::14                     1                       # What write queue length does an incoming req see
system.mem_ctrls1.wrQLenPdf::15                 53117                       # What write queue length does an incoming req see
system.mem_ctrls1.wrQLenPdf::16                 56691                       # What write queue length does an incoming req see
system.mem_ctrls1.wrQLenPdf::17                 71639                       # What write queue length does an incoming req see
system.mem_ctrls1.wrQLenPdf::18                 76709                       # What write queue length does an incoming req see
system.mem_ctrls1.wrQLenPdf::19                 77080                       # What write queue length does an incoming req see
system.mem_ctrls1.wrQLenPdf::20                 77116                       # What write queue length does an incoming req see
system.mem_ctrls1.wrQLenPdf::21                 77068                       # What write queue length does an incoming req see
system.mem_ctrls1.wrQLenPdf::22                 76979                       # What write queue length does an incoming req see
system.mem_ctrls1.wrQLenPdf::23                 76877                       # What write queue length does an incoming req see
system.mem_ctrls1.wrQLenPdf::24                 76871                       # What write queue length does an incoming req see
system.mem_ctrls1.wrQLenPdf::25                 76894                       # What write queue length does an incoming req see
system.mem_ctrls1.wrQLenPdf::26                 76674                       # What write queue length does an incoming req see
system.mem_ctrls1.wrQLenPdf::27                 76645                       # What write queue length does an incoming req see
system.mem_ctrls1.wrQLenPdf::28                 76370                       # What write queue length does an incoming req see
system.mem_ctrls1.wrQLenPdf::29                 76339                       # What write queue length does an incoming req see
system.mem_ctrls1.wrQLenPdf::30                 75900                       # What write queue length does an incoming req see
system.mem_ctrls1.wrQLenPdf::31                 75795                       # What write queue length does an incoming req see
system.mem_ctrls1.wrQLenPdf::32                 75841                       # What write queue length does an incoming req see
system.mem_ctrls1.wrQLenPdf::33                   191                       # What write queue length does an incoming req see
system.mem_ctrls1.wrQLenPdf::34                    39                       # What write queue length does an incoming req see
system.mem_ctrls1.wrQLenPdf::35                    16                       # What write queue length does an incoming req see
system.mem_ctrls1.wrQLenPdf::36                    11                       # What write queue length does an incoming req see
system.mem_ctrls1.wrQLenPdf::37                     6                       # What write queue length does an incoming req see
system.mem_ctrls1.wrQLenPdf::38                     4                       # What write queue length does an incoming req see
system.mem_ctrls1.wrQLenPdf::39                     2                       # What write queue length does an incoming req see
system.mem_ctrls1.wrQLenPdf::40                     2                       # What write queue length does an incoming req see
system.mem_ctrls1.wrQLenPdf::41                     0                       # What write queue length does an incoming req see
system.mem_ctrls1.wrQLenPdf::42                     0                       # What write queue length does an incoming req see
system.mem_ctrls1.wrQLenPdf::43                     0                       # What write queue length does an incoming req see
system.mem_ctrls1.wrQLenPdf::44                     0                       # What write queue length does an incoming req see
system.mem_ctrls1.wrQLenPdf::45                     0                       # What write queue length does an incoming req see
system.mem_ctrls1.wrQLenPdf::46                     0                       # What write queue length does an incoming req see
system.mem_ctrls1.wrQLenPdf::47                     0                       # What write queue length does an incoming req see
system.mem_ctrls1.wrQLenPdf::48                     0                       # What write queue length does an incoming req see
system.mem_ctrls1.wrQLenPdf::49                     0                       # What write queue length does an incoming req see
system.mem_ctrls1.wrQLenPdf::50                     0                       # What write queue length does an incoming req see
system.mem_ctrls1.wrQLenPdf::51                     0                       # What write queue length does an incoming req see
system.mem_ctrls1.wrQLenPdf::52                     0                       # What write queue length does an incoming req see
system.mem_ctrls1.wrQLenPdf::53                     0                       # What write queue length does an incoming req see
system.mem_ctrls1.wrQLenPdf::54                     0                       # What write queue length does an incoming req see
system.mem_ctrls1.wrQLenPdf::55                     0                       # What write queue length does an incoming req see
system.mem_ctrls1.wrQLenPdf::56                     0                       # What write queue length does an incoming req see
system.mem_ctrls1.wrQLenPdf::57                     0                       # What write queue length does an incoming req see
system.mem_ctrls1.wrQLenPdf::58                     0                       # What write queue length does an incoming req see
system.mem_ctrls1.wrQLenPdf::59                     0                       # What write queue length does an incoming req see
system.mem_ctrls1.wrQLenPdf::60                     0                       # What write queue length does an incoming req see
system.mem_ctrls1.wrQLenPdf::61                     0                       # What write queue length does an incoming req see
system.mem_ctrls1.wrQLenPdf::62                     0                       # What write queue length does an incoming req see
system.mem_ctrls1.wrQLenPdf::63                     0                       # What write queue length does an incoming req see
system.mem_ctrls1.bytesPerActivate::samples      1906261                       # Bytes accessed per row activation
system.mem_ctrls1.bytesPerActivate::mean   142.895421                       # Bytes accessed per row activation
system.mem_ctrls1.bytesPerActivate::gmean    89.911947                       # Bytes accessed per row activation
system.mem_ctrls1.bytesPerActivate::stdev   215.854710                       # Bytes accessed per row activation
system.mem_ctrls1.bytesPerActivate::0-127      1513388     79.39%     79.39% # Bytes accessed per row activation
system.mem_ctrls1.bytesPerActivate::128-255       153097      8.03%     87.42% # Bytes accessed per row activation
system.mem_ctrls1.bytesPerActivate::256-383        58879      3.09%     90.51% # Bytes accessed per row activation
system.mem_ctrls1.bytesPerActivate::384-511        37518      1.97%     92.48% # Bytes accessed per row activation
system.mem_ctrls1.bytesPerActivate::512-639        26491      1.39%     93.87% # Bytes accessed per row activation
system.mem_ctrls1.bytesPerActivate::640-767        23098      1.21%     95.08% # Bytes accessed per row activation
system.mem_ctrls1.bytesPerActivate::768-895        11953      0.63%     95.71% # Bytes accessed per row activation
system.mem_ctrls1.bytesPerActivate::896-1023        21831      1.15%     96.85% # Bytes accessed per row activation
system.mem_ctrls1.bytesPerActivate::1024-1151        60006      3.15%    100.00% # Bytes accessed per row activation
system.mem_ctrls1.bytesPerActivate::total      1906261                       # Bytes accessed per row activation
system.mem_ctrls1.rdPerTurnAround::samples        75781                       # Reads before turning the bus around for writes
system.mem_ctrls1.rdPerTurnAround::mean     38.702260                       # Reads before turning the bus around for writes
system.mem_ctrls1.rdPerTurnAround::stdev  1320.383653                       # Reads before turning the bus around for writes
system.mem_ctrls1.rdPerTurnAround::0-8191        75774     99.99%     99.99% # Reads before turning the bus around for writes
system.mem_ctrls1.rdPerTurnAround::8192-16383            1      0.00%     99.99% # Reads before turning the bus around for writes
system.mem_ctrls1.rdPerTurnAround::16384-24575            2      0.00%     99.99% # Reads before turning the bus around for writes
system.mem_ctrls1.rdPerTurnAround::40960-49151            1      0.00%    100.00% # Reads before turning the bus around for writes
system.mem_ctrls1.rdPerTurnAround::196608-204799            1      0.00%    100.00% # Reads before turning the bus around for writes
system.mem_ctrls1.rdPerTurnAround::204800-212991            1      0.00%    100.00% # Reads before turning the bus around for writes
system.mem_ctrls1.rdPerTurnAround::212992-221183            1      0.00%    100.00% # Reads before turning the bus around for writes
system.mem_ctrls1.rdPerTurnAround::total        75781                       # Reads before turning the bus around for writes
system.mem_ctrls1.wrPerTurnAround::samples        75781                       # Writes before turning the bus around for reads
system.mem_ctrls1.wrPerTurnAround::mean     17.561988                       # Writes before turning the bus around for reads
system.mem_ctrls1.wrPerTurnAround::gmean    17.531840                       # Writes before turning the bus around for reads
system.mem_ctrls1.wrPerTurnAround::stdev     1.023581                       # Writes before turning the bus around for reads
system.mem_ctrls1.wrPerTurnAround::16           19461     25.68%     25.68% # Writes before turning the bus around for reads
system.mem_ctrls1.wrPerTurnAround::17            2335      3.08%     28.76% # Writes before turning the bus around for reads
system.mem_ctrls1.wrPerTurnAround::18           47792     63.07%     91.83% # Writes before turning the bus around for reads
system.mem_ctrls1.wrPerTurnAround::19            4866      6.42%     98.25% # Writes before turning the bus around for reads
system.mem_ctrls1.wrPerTurnAround::20             971      1.28%     99.53% # Writes before turning the bus around for reads
system.mem_ctrls1.wrPerTurnAround::21             261      0.34%     99.87% # Writes before turning the bus around for reads
system.mem_ctrls1.wrPerTurnAround::22              54      0.07%     99.95% # Writes before turning the bus around for reads
system.mem_ctrls1.wrPerTurnAround::23              24      0.03%     99.98% # Writes before turning the bus around for reads
system.mem_ctrls1.wrPerTurnAround::24               6      0.01%     99.99% # Writes before turning the bus around for reads
system.mem_ctrls1.wrPerTurnAround::25               2      0.00%     99.99% # Writes before turning the bus around for reads
system.mem_ctrls1.wrPerTurnAround::26               2      0.00%     99.99% # Writes before turning the bus around for reads
system.mem_ctrls1.wrPerTurnAround::27               5      0.01%    100.00% # Writes before turning the bus around for reads
system.mem_ctrls1.wrPerTurnAround::29               1      0.00%    100.00% # Writes before turning the bus around for reads
system.mem_ctrls1.wrPerTurnAround::33               1      0.00%    100.00% # Writes before turning the bus around for reads
system.mem_ctrls1.wrPerTurnAround::total        75781                       # Writes before turning the bus around for reads
system.mem_ctrls1.totQLat                 33550479750                       # Total ticks spent queuing
system.mem_ctrls1.totMemAccLat            88400211000                       # Total ticks spent from burst creation until serviced by the DRAM
system.mem_ctrls1.totBusLat               14626595000                       # Total ticks spent in databus transfers
system.mem_ctrls1.avgQLat                    11469.00                       # Average queueing delay per DRAM burst
system.mem_ctrls1.avgBusLat                   5000.00                       # Average bus latency per DRAM burst
system.mem_ctrls1.avgMemAccLat               30219.00                       # Average memory access latency per DRAM burst
system.mem_ctrls1.avgRdBW                      113.55                       # Average DRAM read bandwidth in MiByte/s
system.mem_ctrls1.avgWrBW                       51.66                       # Average achieved write bandwidth in MiByte/s
system.mem_ctrls1.avgRdBWSys                   113.60                       # Average system read bandwidth in MiByte/s
system.mem_ctrls1.avgWrBWSys                    51.67                       # Average system write bandwidth in MiByte/s
system.mem_ctrls1.peakBW                     12800.00                       # Theoretical peak bandwidth in MiByte/s
system.mem_ctrls1.busUtil                        1.29                       # Data bus utilization in percentage
system.mem_ctrls1.busUtilRead                    0.89                       # Data bus utilization in percentage for reads
system.mem_ctrls1.busUtilWrite                   0.40                       # Data bus utilization in percentage for writes
system.mem_ctrls1.avgRdQLen                      1.00                       # Average read queue length when enqueuing
system.mem_ctrls1.avgWrQLen                     24.44                       # Average write queue length when enqueuing
system.mem_ctrls1.readRowHits                 1850522                       # Number of row buffer hits during reads
system.mem_ctrls1.writeRowHits                 499402                       # Number of row buffer hits during writes
system.mem_ctrls1.readRowHitRate                63.26                       # Row buffer hit rate for reads
system.mem_ctrls1.writeRowHitRate               37.52                       # Row buffer hit rate for writes
system.mem_ctrls1.avgGap                    387252.07                       # Average gap between requests
system.mem_ctrls1.pageHitRate                   55.21                       # Row buffer hit rate, read and write combined
system.mem_ctrls1_0.actEnergy              7215710040                       # Energy for activate commands per rank (pJ)
system.mem_ctrls1_0.preEnergy              3937143375                       # Energy for precharge commands per rank (pJ)
system.mem_ctrls1_0.readEnergy            11430759600                       # Energy for read commands per rank (pJ)
system.mem_ctrls1_0.writeEnergy            4309012080                       # Energy for write commands per rank (pJ)
system.mem_ctrls1_0.refreshEnergy        107908803600                       # Energy for refresh commands per rank (pJ)
system.mem_ctrls1_0.actBackEnergy        494246651445                       # Energy for active background per rank (pJ)
system.mem_ctrls1_0.preBackEnergy        557725735500                       # Energy for precharge background per rank (pJ)
system.mem_ctrls1_0.totalEnergy          1186773815640                       # Total energy per rank (pJ)
system.mem_ctrls1_0.averagePower           718.331422                       # Core power per rank (mW)
system.mem_ctrls1_0.memoryStateTime::IDLE 922948788750                       # Time in different power states
system.mem_ctrls1_0.memoryStateTime::REF  55057860000                       # Time in different power states
system.mem_ctrls1_0.memoryStateTime::PRE_PDN            0                       # Time in different power states
system.mem_ctrls1_0.memoryStateTime::ACT 670812038250                       # Time in different power states
system.mem_ctrls1_0.memoryStateTime::ACT_PDN            0                       # Time in different power states
system.mem_ctrls1_1.actEnergy              7214334120                       # Energy for activate commands per rank (pJ)
system.mem_ctrls1_1.preEnergy              3936392625                       # Energy for precharge commands per rank (pJ)
system.mem_ctrls1_1.readEnergy            11446601400                       # Energy for read commands per rank (pJ)
system.mem_ctrls1_1.writeEnergy            4314993120                       # Energy for write commands per rank (pJ)
system.mem_ctrls1_1.refreshEnergy        107908803600                       # Energy for refresh commands per rank (pJ)
system.mem_ctrls1_1.actBackEnergy        495586560420                       # Energy for active background per rank (pJ)
system.mem_ctrls1_1.preBackEnergy        556550376750                       # Energy for precharge background per rank (pJ)
system.mem_ctrls1_1.totalEnergy          1186958062035                       # Total energy per rank (pJ)
system.mem_ctrls1_1.averagePower           718.442943                       # Core power per rank (mW)
system.mem_ctrls1_1.memoryStateTime::IDLE 921572563750                       # Time in different power states
system.mem_ctrls1_1.memoryStateTime::REF  55057860000                       # Time in different power states
system.mem_ctrls1_1.memoryStateTime::PRE_PDN            0                       # Time in different power states
system.mem_ctrls1_1.memoryStateTime::ACT 672193303250                       # Time in different power states
system.mem_ctrls1_1.memoryStateTime::ACT_PDN            0                       # Time in different power states
system.cpu_voltage_domain.voltage                   1                       # Voltage in Volts
system.cpu_clk_domain.clock                       500                       # Clock period in ticks
system.cpu0.apic_clk_domain.clock                8000                       # Clock period in ticks
system.cpu0.numCycles                      3293014328                       # number of cpu cycles simulated
system.cpu0.numWorkItemsStarted                     0                       # number of work items this cpu started
system.cpu0.numWorkItemsCompleted                   0                       # number of work items this cpu completed
system.cpu0.kern.inst.arm                           0                       # number of arm instructions executed
system.cpu0.kern.inst.quiesce                       0                       # number of quiesce instructions executed
system.cpu0.committedInsts                    1306771                       # Number of instructions committed
system.cpu0.committedOps                      2852173                       # Number of ops (including micro ops) committed
system.cpu0.num_int_alu_accesses              2790865                       # Number of integer alu accesses
system.cpu0.num_fp_alu_accesses                     0                       # Number of float alu accesses
system.cpu0.num_func_calls                      84648                       # number of times a function call or return occured
system.cpu0.num_conditional_control_insts       187462                       # number of instructions that are conditional controls
system.cpu0.num_int_insts                     2790865                       # number of integer instructions
system.cpu0.num_fp_insts                            0                       # number of float instructions
system.cpu0.num_int_register_reads            5671422                       # number of times the integer registers were read
system.cpu0.num_int_register_writes           2312300                       # number of times the integer registers were written
system.cpu0.num_fp_register_reads                   0                       # number of times the floating registers were read
system.cpu0.num_fp_register_writes                  0                       # number of times the floating registers were written
system.cpu0.num_cc_register_reads             1567976                       # number of times the CC registers were read
system.cpu0.num_cc_register_writes             851695                       # number of times the CC registers were written
system.cpu0.num_mem_refs                       673614                       # number of memory refs
system.cpu0.num_load_insts                     415851                       # Number of load instructions
system.cpu0.num_store_insts                    257763                       # Number of store instructions
system.cpu0.num_idle_cycles              3287415232.774367                       # Number of idle cycles
system.cpu0.num_busy_cycles              5599095.225633                       # Number of busy cycles
system.cpu0.not_idle_fraction                0.001700                       # Percentage of non-idle cycles
system.cpu0.idle_fraction                    0.998300                       # Percentage of idle cycles
system.cpu0.Branches                           297782                       # Number of branches fetched
system.cpu0.op_class::No_OpClass                49200      1.72%      1.72% # Class of executed instruction
system.cpu0.op_class::IntAlu                  2107584     73.89%     75.62% # Class of executed instruction
system.cpu0.op_class::IntMult                    5377      0.19%     75.81% # Class of executed instruction
system.cpu0.op_class::IntDiv                    16401      0.58%     76.38% # Class of executed instruction
system.cpu0.op_class::FloatAdd                      0      0.00%     76.38% # Class of executed instruction
system.cpu0.op_class::FloatCmp                      0      0.00%     76.38% # Class of executed instruction
system.cpu0.op_class::FloatCvt                      0      0.00%     76.38% # Class of executed instruction
system.cpu0.op_class::FloatMult                     0      0.00%     76.38% # Class of executed instruction
system.cpu0.op_class::FloatDiv                      0      0.00%     76.38% # Class of executed instruction
system.cpu0.op_class::FloatSqrt                     0      0.00%     76.38% # Class of executed instruction
system.cpu0.op_class::SimdAdd                       0      0.00%     76.38% # Class of executed instruction
system.cpu0.op_class::SimdAddAcc                    0      0.00%     76.38% # Class of executed instruction
system.cpu0.op_class::SimdAlu                       0      0.00%     76.38% # Class of executed instruction
system.cpu0.op_class::SimdCmp                       0      0.00%     76.38% # Class of executed instruction
system.cpu0.op_class::SimdCvt                       0      0.00%     76.38% # Class of executed instruction
system.cpu0.op_class::SimdMisc                      0      0.00%     76.38% # Class of executed instruction
system.cpu0.op_class::SimdMult                      0      0.00%     76.38% # Class of executed instruction
system.cpu0.op_class::SimdMultAcc                   0      0.00%     76.38% # Class of executed instruction
system.cpu0.op_class::SimdShift                     0      0.00%     76.38% # Class of executed instruction
system.cpu0.op_class::SimdShiftAcc                  0      0.00%     76.38% # Class of executed instruction
system.cpu0.op_class::SimdSqrt                      0      0.00%     76.38% # Class of executed instruction
system.cpu0.op_class::SimdFloatAdd                  0      0.00%     76.38% # Class of executed instruction
system.cpu0.op_class::SimdFloatAlu                  0      0.00%     76.38% # Class of executed instruction
system.cpu0.op_class::SimdFloatCmp                  0      0.00%     76.38% # Class of executed instruction
system.cpu0.op_class::SimdFloatCvt                  0      0.00%     76.38% # Class of executed instruction
system.cpu0.op_class::SimdFloatDiv                  0      0.00%     76.38% # Class of executed instruction
system.cpu0.op_class::SimdFloatMisc                 0      0.00%     76.38% # Class of executed instruction
system.cpu0.op_class::SimdFloatMult                 0      0.00%     76.38% # Class of executed instruction
system.cpu0.op_class::SimdFloatMultAcc              0      0.00%     76.38% # Class of executed instruction
system.cpu0.op_class::SimdFloatSqrt                 0      0.00%     76.38% # Class of executed instruction
system.cpu0.op_class::MemRead                  415851     14.58%     90.96% # Class of executed instruction
system.cpu0.op_class::MemWrite                 257763      9.04%    100.00% # Class of executed instruction
system.cpu0.op_class::IprAccess                     0      0.00%    100.00% # Class of executed instruction
system.cpu0.op_class::InstPrefetch                  0      0.00%    100.00% # Class of executed instruction
system.cpu0.op_class::total                   2852176                       # Class of executed instruction
system.cpu1.apic_clk_domain.clock                8000                       # Clock period in ticks
system.cpu1.numCycles                      3296860267                       # number of cpu cycles simulated
system.cpu1.numWorkItemsStarted                     0                       # number of work items this cpu started
system.cpu1.numWorkItemsCompleted                   0                       # number of work items this cpu completed
system.cpu1.kern.inst.arm                           0                       # number of arm instructions executed
system.cpu1.kern.inst.quiesce                       0                       # number of quiesce instructions executed
system.cpu1.committedInsts                    3751166                       # Number of instructions committed
system.cpu1.committedOps                      7489447                       # Number of ops (including micro ops) committed
system.cpu1.num_int_alu_accesses              7355821                       # Number of integer alu accesses
system.cpu1.num_fp_alu_accesses                  1778                       # Number of float alu accesses
system.cpu1.num_func_calls                     194978                       # number of times a function call or return occured
system.cpu1.num_conditional_control_insts       633417                       # number of instructions that are conditional controls
system.cpu1.num_int_insts                     7355821                       # number of integer instructions
system.cpu1.num_fp_insts                         1778                       # number of float instructions
system.cpu1.num_int_register_reads           14631338                       # number of times the integer registers were read
system.cpu1.num_int_register_writes           5981865                       # number of times the integer registers were written
system.cpu1.num_fp_register_reads                2988                       # number of times the floating registers were read
system.cpu1.num_fp_register_writes               1416                       # number of times the floating registers were written
system.cpu1.num_cc_register_reads             4736692                       # number of times the CC registers were read
system.cpu1.num_cc_register_writes            2555808                       # number of times the CC registers were written
system.cpu1.num_mem_refs                      1693492                       # number of memory refs
system.cpu1.num_load_insts                    1099814                       # Number of load instructions
system.cpu1.num_store_insts                    593678                       # Number of store instructions
system.cpu1.num_idle_cycles              3281532870.744747                       # Number of idle cycles
system.cpu1.num_busy_cycles              15327396.255253                       # Number of busy cycles
system.cpu1.not_idle_fraction                0.004649                       # Percentage of non-idle cycles
system.cpu1.idle_fraction                    0.995351                       # Percentage of idle cycles
system.cpu1.Branches                           862618                       # Number of branches fetched
system.cpu1.op_class::No_OpClass                51498      0.69%      0.69% # Class of executed instruction
system.cpu1.op_class::IntAlu                  5719072     76.36%     77.05% # Class of executed instruction
system.cpu1.op_class::IntMult                    7238      0.10%     77.15% # Class of executed instruction
system.cpu1.op_class::IntDiv                    16893      0.23%     77.37% # Class of executed instruction
system.cpu1.op_class::FloatAdd                   1344      0.02%     77.39% # Class of executed instruction
system.cpu1.op_class::FloatCmp                      0      0.00%     77.39% # Class of executed instruction
system.cpu1.op_class::FloatCvt                      0      0.00%     77.39% # Class of executed instruction
system.cpu1.op_class::FloatMult                     0      0.00%     77.39% # Class of executed instruction
system.cpu1.op_class::FloatDiv                      0      0.00%     77.39% # Class of executed instruction
system.cpu1.op_class::FloatSqrt                     0      0.00%     77.39% # Class of executed instruction
system.cpu1.op_class::SimdAdd                       0      0.00%     77.39% # Class of executed instruction
system.cpu1.op_class::SimdAddAcc                    0      0.00%     77.39% # Class of executed instruction
system.cpu1.op_class::SimdAlu                       0      0.00%     77.39% # Class of executed instruction
system.cpu1.op_class::SimdCmp                       0      0.00%     77.39% # Class of executed instruction
system.cpu1.op_class::SimdCvt                       0      0.00%     77.39% # Class of executed instruction
system.cpu1.op_class::SimdMisc                      0      0.00%     77.39% # Class of executed instruction
system.cpu1.op_class::SimdMult                      0      0.00%     77.39% # Class of executed instruction
system.cpu1.op_class::SimdMultAcc                   0      0.00%     77.39% # Class of executed instruction
system.cpu1.op_class::SimdShift                     0      0.00%     77.39% # Class of executed instruction
system.cpu1.op_class::SimdShiftAcc                  0      0.00%     77.39% # Class of executed instruction
system.cpu1.op_class::SimdSqrt                      0      0.00%     77.39% # Class of executed instruction
system.cpu1.op_class::SimdFloatAdd                  0      0.00%     77.39% # Class of executed instruction
system.cpu1.op_class::SimdFloatAlu                  0      0.00%     77.39% # Class of executed instruction
system.cpu1.op_class::SimdFloatCmp                  0      0.00%     77.39% # Class of executed instruction
system.cpu1.op_class::SimdFloatCvt                  0      0.00%     77.39% # Class of executed instruction
system.cpu1.op_class::SimdFloatDiv                  0      0.00%     77.39% # Class of executed instruction
system.cpu1.op_class::SimdFloatMisc                 0      0.00%     77.39% # Class of executed instruction
system.cpu1.op_class::SimdFloatMult                 0      0.00%     77.39% # Class of executed instruction
system.cpu1.op_class::SimdFloatMultAcc              0      0.00%     77.39% # Class of executed instruction
system.cpu1.op_class::SimdFloatSqrt                 0      0.00%     77.39% # Class of executed instruction
system.cpu1.op_class::MemRead                 1099814     14.68%     92.07% # Class of executed instruction
system.cpu1.op_class::MemWrite                 593678      7.93%    100.00% # Class of executed instruction
system.cpu1.op_class::IprAccess                     0      0.00%    100.00% # Class of executed instruction
system.cpu1.op_class::InstPrefetch                  0      0.00%    100.00% # Class of executed instruction
system.cpu1.op_class::total                   7489537                       # Class of executed instruction
system.cpu2.apic_clk_domain.clock                8000                       # Clock period in ticks
system.cpu2.numCycles                      3300646562                       # number of cpu cycles simulated
system.cpu2.numWorkItemsStarted                     0                       # number of work items this cpu started
system.cpu2.numWorkItemsCompleted                   0                       # number of work items this cpu completed
system.cpu2.kern.inst.arm                           0                       # number of arm instructions executed
system.cpu2.kern.inst.quiesce                       0                       # number of quiesce instructions executed
system.cpu2.committedInsts                    1209132                       # Number of instructions committed
system.cpu2.committedOps                      2603936                       # Number of ops (including micro ops) committed
system.cpu2.num_int_alu_accesses              2545989                       # Number of integer alu accesses
system.cpu2.num_fp_alu_accesses                    39                       # Number of float alu accesses
system.cpu2.num_func_calls                      71184                       # number of times a function call or return occured
[...]
system.ruby.L1Cache_Controller.O.Trigger_L2_to_L1I::total        29572                      
system.ruby.L1Cache_Controller.O.Other_GETX |        2487     22.78%     22.78% |        3765     34.48%     57.26% |        2544     23.30%     80.56% |        2123     19.44%    100.00%
system.ruby.L1Cache_Controller.O.Other_GETX::total        10919                      
system.ruby.L1Cache_Controller.O.Other_GETS |        1545     10.15%     10.15% |        6421     42.19%     52.34% |        3399     22.33%     74.68% |        3854     25.32%    100.00%
system.ruby.L1Cache_Controller.O.Other_GETS::total        15219                      
system.ruby.L1Cache_Controller.M.Load    |       97508      0.30%      0.30% |      168829      0.52%      0.81% |       63299      0.19%      1.01% |    32417673     98.99%    100.00%
system.ruby.L1Cache_Controller.M.Load::total     32747309                      
system.ruby.L1Cache_Controller.M.Ifetch  |     1471817      0.15%      0.15% |     3904402      0.39%      0.53% |       22981      0.00%      0.53% |  1006162649     99.47%    100.00%
system.ruby.L1Cache_Controller.M.Ifetch::total   1011561849                      
system.ruby.L1Cache_Controller.M.Store   |        2518      4.74%      4.74% |       19344     36.44%     41.18% |        1140      2.15%     43.33% |       30085     56.67%    100.00%
system.ruby.L1Cache_Controller.M.Store::total        53087                      
system.ruby.L1Cache_Controller.M.L2_Replacement |           7      0.00%      0.00% |        1167      0.04%      0.04% |           0      0.00%      0.04% |     3154499     99.96%    100.00%
system.ruby.L1Cache_Controller.M.L2_Replacement::total      3155673                      
system.ruby.L1Cache_Controller.M.L1_to_L2 |       10827      0.17%      0.17% |       10199      0.16%      0.32% |        2386      0.04%      0.36% |     6492483     99.64%    100.00%
system.ruby.L1Cache_Controller.M.L1_to_L2::total      6515895                      
system.ruby.L1Cache_Controller.M.Trigger_L2_to_L1D |        2222      0.07%      0.07% |        3596      0.11%      0.17% |         528      0.02%      0.19% |     3329167     99.81%    100.00%
system.ruby.L1Cache_Controller.M.Trigger_L2_to_L1D::total      3335513                      
system.ruby.L1Cache_Controller.M.Trigger_L2_to_L1I |        4447     69.76%     69.76% |         690     10.82%     80.58% |         136      2.13%     82.71% |        1102     17.29%    100.00%
system.ruby.L1Cache_Controller.M.Trigger_L2_to_L1I::total         6375                      
system.ruby.L1Cache_Controller.M.Other_GETX |         927     40.16%     40.16% |         150      6.50%     46.66% |         296     12.82%     59.49% |         935     40.51%    100.00%
system.ruby.L1Cache_Controller.M.Other_GETX::total         2308                      
system.ruby.L1Cache_Controller.M.Other_GETS |        3701     21.42%     21.42% |        6737     38.99%     60.41% |        3531     20.44%     80.84% |        3310     19.16%    100.00%
system.ruby.L1Cache_Controller.M.Other_GETS::total        17279                      
system.ruby.L1Cache_Controller.M.Merged_GETS |          60     77.92%     77.92% |          11     14.29%     92.21% |           4      5.19%     97.40% |           2      2.60%    100.00%
system.ruby.L1Cache_Controller.M.Merged_GETS::total           77                      
system.ruby.L1Cache_Controller.MM.Load   |      666081      2.55%      2.55% |     2567411      9.85%     12.40% |      323773      1.24%     13.64% |    22514334     86.36%    100.00%
system.ruby.L1Cache_Controller.MM.Load::total     26071599                      
system.ruby.L1Cache_Controller.MM.Store  |      726772      0.99%      0.99% |     2363949      3.21%      4.19% |      368625      0.50%      4.69% |    70244815     95.31%    100.00%
system.ruby.L1Cache_Controller.MM.Store::total     73704161                      
system.ruby.L1Cache_Controller.MM.L2_Replacement |          16      0.00%      0.00% |        8619      0.32%      0.32% |           0      0.00%      0.32% |     2661939     99.68%    100.00%
system.ruby.L1Cache_Controller.MM.L2_Replacement::total      2670574                      
system.ruby.L1Cache_Controller.MM.L1_to_L2 |       19305      0.12%      0.12% |      155566      0.95%      1.06% |        6400      0.04%      1.10% |    16253700     98.90%    100.00%
system.ruby.L1Cache_Controller.MM.L1_to_L2::total     16434971                      
system.ruby.L1Cache_Controller.MM.Trigger_L2_to_L1D |        7712      0.06%      0.06% |      124713      0.91%      0.97% |        2285      0.02%      0.98% |    13557148     99.02%    100.00%
system.ruby.L1Cache_Controller.MM.Trigger_L2_to_L1D::total     13691858                      
system.ruby.L1Cache_Controller.MM.Other_GETX |        2922     22.99%     22.99% |        2351     18.50%     41.48% |        2473     19.46%     60.94% |        4965     39.06%    100.00%
system.ruby.L1Cache_Controller.MM.Other_GETX::total        12711                      
system.ruby.L1Cache_Controller.MM.Other_GETS |        8627     24.32%     24.32% |        4456     12.56%     36.88% |        2703      7.62%     44.50% |       19686     55.50%    100.00%
system.ruby.L1Cache_Controller.MM.Other_GETS::total        35472                      
system.ruby.L1Cache_Controller.MM.Merged_GETS |         116     43.77%     43.77% |          13      4.91%     48.68% |          74     27.92%     76.60% |          62     23.40%    100.00%
system.ruby.L1Cache_Controller.MM.Merged_GETS::total          265                      
system.ruby.L1Cache_Controller.SR.Load   |        3312      2.65%      2.65% |        6533      5.22%      7.87% |        2135      1.71%      9.58% |      113067     90.42%    100.00%
system.ruby.L1Cache_Controller.SR.Load::total       125047                      
system.ruby.L1Cache_Controller.SR.Ifetch |       26303     27.41%     27.41% |       26003     27.10%     54.50% |       10334     10.77%     65.27% |       33327     34.73%    100.00%
system.ruby.L1Cache_Controller.SR.Ifetch::total        95967                      
system.ruby.L1Cache_Controller.SR.Store  |          25      9.23%      9.23% |          73     26.94%     36.16% |           6      2.21%     38.38% |         167     61.62%    100.00%
system.ruby.L1Cache_Controller.SR.Store::total          271                      
system.ruby.L1Cache_Controller.OR.Load   |         788     12.35%     12.35% |        1981     31.05%     43.40% |        1072     16.80%     60.20% |        2539     39.80%    100.00%
system.ruby.L1Cache_Controller.OR.Load::total         6380                      
system.ruby.L1Cache_Controller.OR.Ifetch |        2351      7.95%      7.95% |        6982     23.61%     31.56% |        7500     25.36%     56.92% |       12739     43.08%    100.00%
system.ruby.L1Cache_Controller.OR.Ifetch::total        29572                      
system.ruby.L1Cache_Controller.OR.Store  |           5     16.67%     16.67% |          16     53.33%     70.00% |           3     10.00%     80.00% |           6     20.00%    100.00%
system.ruby.L1Cache_Controller.OR.Store::total           30                      
system.ruby.L1Cache_Controller.MR.Load   |        1579      0.05%      0.05% |        2454      0.07%      0.12% |         497      0.01%      0.14% |     3328348     99.86%    100.00%
system.ruby.L1Cache_Controller.MR.Load::total      3332878                      
system.ruby.L1Cache_Controller.MR.Ifetch |        4447     69.76%     69.76% |         690     10.82%     80.58% |         136      2.13%     82.71% |        1102     17.29%    100.00%
system.ruby.L1Cache_Controller.MR.Ifetch::total         6375                      
system.ruby.L1Cache_Controller.MR.Store  |         643     24.40%     24.40% |        1142     43.34%     67.74% |          31      1.18%     68.92% |         819     31.08%    100.00%
system.ruby.L1Cache_Controller.MR.Store::total         2635                      
system.ruby.L1Cache_Controller.MMR.Load  |        4978      0.08%      0.08% |       81183      1.24%      1.32% |         549      0.01%      1.33% |     6455534     98.67%    100.00%
system.ruby.L1Cache_Controller.MMR.Load::total      6542244                      
system.ruby.L1Cache_Controller.MMR.Store |        2734      0.04%      0.04% |       43530      0.61%      0.65% |        1736      0.02%      0.67% |     7101614     99.33%    100.00%
system.ruby.L1Cache_Controller.MMR.Store::total      7149614                      
system.ruby.L1Cache_Controller.IM.Ack    |       27907      0.35%      0.35% |       23366      0.29%      0.64% |        9136      0.11%      0.75% |     7982230     99.25%    100.00%
system.ruby.L1Cache_Controller.IM.Ack::total      8042639                      
system.ruby.L1Cache_Controller.IM.Data   |        1568     39.62%     39.62% |         774     19.56%     59.17% |         723     18.27%     77.44% |         893     22.56%    100.00%
system.ruby.L1Cache_Controller.IM.Data::total         3958                      
system.ruby.L1Cache_Controller.IM.Exclusive_Data |        9463      0.35%      0.35% |       11328      0.42%      0.77% |        3603      0.13%      0.91% |     2664210     99.09%    100.00%
system.ruby.L1Cache_Controller.IM.Exclusive_Data::total      2688604                      
system.ruby.L1Cache_Controller.SM.Ack    |        3369     45.03%     45.03% |        1289     17.23%     62.26% |         202      2.70%     64.96% |        2622     35.04%    100.00%
system.ruby.L1Cache_Controller.SM.Ack::total         7482                      
system.ruby.L1Cache_Controller.SM.Data   |        2589     35.62%     35.62% |        1514     20.83%     56.45% |         889     12.23%     68.68% |        2276     31.32%    100.00%
system.ruby.L1Cache_Controller.SM.Data::total         7268                      
system.ruby.L1Cache_Controller.OM.Other_GETX |           0      0.00%      0.00% |           1    100.00%    100.00% |           0      0.00%    100.00% |           0      0.00%    100.00%
system.ruby.L1Cache_Controller.OM.Other_GETX::total            1                      
system.ruby.L1Cache_Controller.OM.Ack    |         327     37.85%     37.85% |         270     31.25%     69.10% |          87     10.07%     79.17% |         180     20.83%    100.00%
system.ruby.L1Cache_Controller.OM.Ack::total          864                      
system.ruby.L1Cache_Controller.OM.All_acks_no_sharers |         109     37.85%     37.85% |          90     31.25%     69.10% |          29     10.07%     79.17% |          60     20.83%    100.00%
system.ruby.L1Cache_Controller.OM.All_acks_no_sharers::total          288                      
system.ruby.L1Cache_Controller.ISM.Ack   |        3408     29.13%     29.13% |        2703     23.10%     52.23% |        2896     24.75%     76.98% |        2694     23.02%    100.00%
system.ruby.L1Cache_Controller.ISM.Ack::total        11701                      
system.ruby.L1Cache_Controller.ISM.All_acks_no_sharers |        4157     37.03%     37.03% |        2288     20.38%     57.41% |        1612     14.36%     71.77% |        3169     28.23%    100.00%
system.ruby.L1Cache_Controller.ISM.All_acks_no_sharers::total        11226                      
system.ruby.L1Cache_Controller.M_W.Load  |          30     13.89%     13.89% |          37     17.13%     31.02% |          40     18.52%     49.54% |         109     50.46%    100.00%
system.ruby.L1Cache_Controller.M_W.Load::total          216                      
system.ruby.L1Cache_Controller.M_W.Store |          24     57.14%     57.14% |          12     28.57%     85.71% |           0      0.00%     85.71% |           6     14.29%    100.00%
system.ruby.L1Cache_Controller.M_W.Store::total           42                      
system.ruby.L1Cache_Controller.M_W.Ack   |        3093     11.96%     11.96% |       10774     41.67%     53.63% |        4573     17.69%     71.32% |        7417     28.68%    100.00%
system.ruby.L1Cache_Controller.M_W.Ack::total        25857                      
system.ruby.L1Cache_Controller.M_W.All_acks_no_sharers |        9224      0.28%      0.28% |       29074      0.90%      1.18% |        5758      0.18%      1.36% |     3194046     98.64%    100.00%
system.ruby.L1Cache_Controller.M_W.All_acks_no_sharers::total      3238102                      
system.ruby.L1Cache_Controller.MM_W.Load |           1    100.00%    100.00% |           0      0.00%    100.00% |           0      0.00%    100.00% |           0      0.00%    100.00%
system.ruby.L1Cache_Controller.MM_W.Load::total            1                      
system.ruby.L1Cache_Controller.MM_W.Store |         489     10.88%     10.88% |        2149     47.81%     58.69% |         380      8.45%     67.14% |        1477     32.86%    100.00%
system.ruby.L1Cache_Controller.MM_W.Store::total         4495                      
system.ruby.L1Cache_Controller.MM_W.Ack  |        1133      9.63%      9.63% |        4011     34.08%     43.70% |         945      8.03%     51.73% |        5682     48.27%    100.00%
system.ruby.L1Cache_Controller.MM_W.Ack::total        11771                      
system.ruby.L1Cache_Controller.MM_W.All_acks_no_sharers |        9487      0.35%      0.35% |       11340      0.42%      0.77% |        3603      0.13%      0.91% |     2664216     99.09%    100.00%
system.ruby.L1Cache_Controller.MM_W.All_acks_no_sharers::total      2688646                      
system.ruby.L1Cache_Controller.IS.Other_GETS |           0      0.00%      0.00% |           3    100.00%    100.00% |           0      0.00%    100.00% |           0      0.00%    100.00%
system.ruby.L1Cache_Controller.IS.Other_GETS::total            3                      
system.ruby.L1Cache_Controller.IS.Ack    |       26111      0.27%      0.27% |       66938      0.69%      0.96% |       16507      0.17%      1.13% |     9582813     98.87%    100.00%
system.ruby.L1Cache_Controller.IS.Ack::total      9692369                      
system.ruby.L1Cache_Controller.IS.Shared_Ack |        5469     18.28%     18.28% |        3862     12.91%     31.20% |        2806      9.38%     40.58% |       17774     59.42%    100.00%
system.ruby.L1Cache_Controller.IS.Shared_Ack::total        29911                      
system.ruby.L1Cache_Controller.IS.Data   |         896      7.95%      7.95% |        3001     26.62%     34.57% |         476      4.22%     38.79% |        6901     61.21%    100.00%
system.ruby.L1Cache_Controller.IS.Data::total        11274                      
system.ruby.L1Cache_Controller.IS.Shared_Data |        8313     25.31%     25.31% |        7315     22.27%     47.59% |        8041     24.48%     72.07% |        9173     27.93%    100.00%
system.ruby.L1Cache_Controller.IS.Shared_Data::total        32842                      
system.ruby.L1Cache_Controller.IS.Exclusive_Data |        9248      0.29%      0.29% |       29086      0.90%      1.18% |        5758      0.18%      1.36% |     3194052     98.64%    100.00%
system.ruby.L1Cache_Controller.IS.Exclusive_Data::total      3238144                      
system.ruby.L1Cache_Controller.SS.Load   |          54     14.67%     14.67% |         101     27.45%     42.12% |           8      2.17%     44.29% |         205     55.71%    100.00%
system.ruby.L1Cache_Controller.SS.Load::total          368                      
system.ruby.L1Cache_Controller.SS.Ifetch |         867     20.34%     20.34% |         506     11.87%     32.21% |         508     11.92%     44.12% |        2382     55.88%    100.00%
system.ruby.L1Cache_Controller.SS.Ifetch::total         4263                      
system.ruby.L1Cache_Controller.SS.Store  |          25     75.76%     75.76% |           4     12.12%     87.88% |           0      0.00%     87.88% |           4     12.12%    100.00%
system.ruby.L1Cache_Controller.SS.Store::total           33                      
system.ruby.L1Cache_Controller.SS.Ack    |        6105     27.84%     27.84% |        6197     28.26%     56.10% |        4936     22.51%     78.61% |        4691     21.39%    100.00%
system.ruby.L1Cache_Controller.SS.Ack::total        21929                      
system.ruby.L1Cache_Controller.SS.Shared_Ack |        2769     36.09%     36.09% |         606      7.90%     43.99% |        1439     18.76%     62.75% |        2858     37.25%    100.00%
system.ruby.L1Cache_Controller.SS.Shared_Ack::total         7672                      
system.ruby.L1Cache_Controller.SS.All_acks |        9207     21.27%     21.27% |        9720     22.46%     43.73% |        8514     19.67%     63.40% |       15840     36.60%    100.00%
system.ruby.L1Cache_Controller.SS.All_acks::total        43281                      
system.ruby.L1Cache_Controller.SS.All_acks_no_sharers |           2      0.24%      0.24% |         596     71.38%     71.62% |           3      0.36%     71.98% |         234     28.02%    100.00%
system.ruby.L1Cache_Controller.SS.All_acks_no_sharers::total          835                      
system.ruby.L1Cache_Controller.OI.Load   |           0      0.00%      0.00% |           0      0.00%      0.00% |           0      0.00%      0.00% |           5    100.00%    100.00%
system.ruby.L1Cache_Controller.OI.Load::total            5                      
system.ruby.L1Cache_Controller.OI.Writeback_Ack |           2      0.04%      0.04% |         903     16.74%     16.78% |           0      0.00%     16.78% |        4489     83.22%    100.00%
system.ruby.L1Cache_Controller.OI.Writeback_Ack::total         5394                      
system.ruby.L1Cache_Controller.MI.Load   |           0      0.00%      0.00% |          21      5.90%      5.90% |           0      0.00%      5.90% |         335     94.10%    100.00%
system.ruby.L1Cache_Controller.MI.Load::total          356                      
system.ruby.L1Cache_Controller.MI.Ifetch |           0      0.00%      0.00% |           0      0.00%      0.00% |           0      0.00%      0.00% |           1    100.00%    100.00%
system.ruby.L1Cache_Controller.MI.Ifetch::total            1                      
system.ruby.L1Cache_Controller.MI.Store  |           0      0.00%      0.00% |          38      4.81%      4.81% |           0      0.00%      4.81% |         752     95.19%    100.00%
system.ruby.L1Cache_Controller.MI.Store::total          790                      
system.ruby.L1Cache_Controller.MI.Writeback_Ack |          23      0.00%      0.00% |        9786      0.17%      0.17% |           0      0.00%      0.17% |     5816438     99.83%    100.00%
system.ruby.L1Cache_Controller.MI.Writeback_Ack::total      5826247                      
system.ruby.L1Cache_Controller.ST.Complete_L2_to_L1 |       29640     13.39%     13.39% |       32609     14.74%     28.13% |       12475      5.64%     33.77% |      146561     66.23%    100.00%
system.ruby.L1Cache_Controller.ST.Complete_L2_to_L1::total       221285                      
system.ruby.L1Cache_Controller.OT.Complete_L2_to_L1 |        3144      8.74%      8.74% |        8979     24.95%     33.69% |        8575     23.83%     57.52% |       15284     42.48%    100.00%
system.ruby.L1Cache_Controller.OT.Complete_L2_to_L1::total        35982                      
system.ruby.L1Cache_Controller.MT.Complete_L2_to_L1 |        6669      0.20%      0.20% |        4286      0.13%      0.33% |         664      0.02%      0.35% |     3330269     99.65%    100.00%
system.ruby.L1Cache_Controller.MT.Complete_L2_to_L1::total      3341888                      
system.ruby.L1Cache_Controller.MMT.Complete_L2_to_L1 |        7712      0.06%      0.06% |      124713      0.91%      0.97% |        2285      0.02%      0.98% |    13557148     99.02%    100.00%
system.ruby.L1Cache_Controller.MMT.Complete_L2_to_L1::total     13691858                      

---------- End Simulation Statistics   ----------
