
---------- Begin Simulation Statistics ----------
sim_seconds                                  1.764307                       # Number of seconds simulated
sim_ticks                                1764306702500                       # Number of ticks simulated
final_tick                               54104651905001                       # Number of ticks from beginning of simulation (restored from checkpoints and never reset)
sim_freq                                 1000000000000                       # Frequency of simulated ticks
host_inst_rate                                 102593                       # Simulator instruction rate (inst/s)
host_op_rate                                   152872                       # Simulator op (including micro ops) rate (op/s)
host_tick_rate                              249680588                       # Simulator tick rate (ticks/s)
host_mem_usage                                2483028                       # Number of bytes of host memory used
host_seconds                                  7066.26                       # Real time elapsed on the host
sim_insts                                   724946295                       # Number of instructions simulated
sim_ops                                    1080232266                       # Number of ops (including micro ops) simulated
system.voltage_domain.voltage                       1                       # Voltage in Volts
system.clk_domain.clock                          1000                       # Clock period in ticks
system.mem_ctrls.bytes_read::ruby.dir_cntrl0    376442048                       # Number of bytes read from this memory
system.mem_ctrls.bytes_read::total          376442048                       # Number of bytes read from this memory
system.mem_ctrls.bytes_written::ruby.dir_cntrl0    170964352                       # Number of bytes written to this memory
system.mem_ctrls.bytes_written::total       170964352                       # Number of bytes written to this memory
system.mem_ctrls.num_reads::ruby.dir_cntrl0      5881907                       # Number of read requests responded to by this memory
system.mem_ctrls.num_reads::total             5881907                       # Number of read requests responded to by this memory
system.mem_ctrls.num_writes::ruby.dir_cntrl0      2671318                       # Number of write requests responded to by this memory
system.mem_ctrls.num_writes::total            2671318                       # Number of write requests responded to by this memory
system.mem_ctrls.bw_read::ruby.dir_cntrl0    213365424                       # Total read bandwidth from this memory (bytes/s)
system.mem_ctrls.bw_read::total             213365424                       # Total read bandwidth from this memory (bytes/s)
system.mem_ctrls.bw_write::ruby.dir_cntrl0     96901719                       # Write bandwidth from this memory (bytes/s)
system.mem_ctrls.bw_write::total             96901719                       # Write bandwidth from this memory (bytes/s)
system.mem_ctrls.bw_total::ruby.dir_cntrl0    310267143                       # Total bandwidth to/from this memory (bytes/s)
system.mem_ctrls.bw_total::total            310267143                       # Total bandwidth to/from this memory (bytes/s)
system.mem_ctrls.readReqs                     5881907                       # Number of read requests accepted
system.mem_ctrls.writeReqs                    2671318                       # Number of write requests accepted
system.mem_ctrls.readBursts                   5881907                       # Number of DRAM read bursts, including those serviced by the write queue
system.mem_ctrls.writeBursts                  2671318                       # Number of DRAM write bursts, including those merged in the write queue
system.mem_ctrls.bytesReadDRAM              376365696                       # Total number of bytes read from DRAM
system.mem_ctrls.bytesReadWrQ                   76352                       # Total number of bytes read from write queue
system.mem_ctrls.bytesWritten               170950336                       # Total number of bytes written to DRAM
system.mem_ctrls.bytesReadSys               376442048                       # Total read bytes from the system interface side
system.mem_ctrls.bytesWrittenSys            170964352                       # Total written bytes from the system interface side
system.mem_ctrls.servicedByWrQ                   1193                       # Number of DRAM read bursts serviced by the write queue
system.mem_ctrls.mergedWrBursts                   212                       # Number of DRAM write bursts merged with an existing one
system.mem_ctrls.neitherReadNorWriteReqs            0                       # Number of requests that are neither read nor write
system.mem_ctrls.perBankRdBursts::0            367878                       # Per bank write bursts
system.mem_ctrls.perBankRdBursts::1            366512                       # Per bank write bursts
system.mem_ctrls.perBankRdBursts::2            367498                       # Per bank write bursts
system.mem_ctrls.perBankRdBursts::3            367711                       # Per bank write bursts
system.mem_ctrls.perBankRdBursts::4            370165                       # Per bank write bursts
system.mem_ctrls.perBankRdBursts::5            365989                       # Per bank write bursts
system.mem_ctrls.perBankRdBursts::6            371498                       # Per bank write bursts
system.mem_ctrls.perBankRdBursts::7            367653                       # Per bank write bursts
system.mem_ctrls.perBankRdBursts::8            367791                       # Per bank write bursts
system.mem_ctrls.perBankRdBursts::9            367273                       # Per bank write bursts
system.mem_ctrls.perBankRdBursts::10           365377                       # Per bank write bursts
system.mem_ctrls.perBankRdBursts::11           368563                       # Per bank write bursts
system.mem_ctrls.perBankRdBursts::12           367545                       # Per bank write bursts
system.mem_ctrls.perBankRdBursts::13           365079                       # Per bank write bursts
system.mem_ctrls.perBankRdBursts::14           365412                       # Per bank write bursts
system.mem_ctrls.perBankRdBursts::15           368770                       # Per bank write bursts
system.mem_ctrls.perBankWrBursts::0            166841                       # Per bank write bursts
system.mem_ctrls.perBankWrBursts::1            166449                       # Per bank write bursts
system.mem_ctrls.perBankWrBursts::2            166808                       # Per bank write bursts
system.mem_ctrls.perBankWrBursts::3            166665                       # Per bank write bursts
system.mem_ctrls.perBankWrBursts::4            168052                       # Per bank write bursts
system.mem_ctrls.perBankWrBursts::5            165989                       # Per bank write bursts
system.mem_ctrls.perBankWrBursts::6            169631                       # Per bank write bursts
system.mem_ctrls.perBankWrBursts::7            167536                       # Per bank write bursts
system.mem_ctrls.perBankWrBursts::8            167894                       # Per bank write bursts
system.mem_ctrls.perBankWrBursts::9            167583                       # Per bank write bursts
system.mem_ctrls.perBankWrBursts::10           165599                       # Per bank write bursts
system.mem_ctrls.perBankWrBursts::11           166970                       # Per bank write bursts
system.mem_ctrls.perBankWrBursts::12           166635                       # Per bank write bursts
system.mem_ctrls.perBankWrBursts::13           165584                       # Per bank write bursts
system.mem_ctrls.perBankWrBursts::14           165708                       # Per bank write bursts
system.mem_ctrls.perBankWrBursts::15           167155                       # Per bank write bursts
system.mem_ctrls.numRdRetry                         0                       # Number of times read queue was full causing retry
system.mem_ctrls.numWrRetry                         0                       # Number of times write queue was full causing retry
system.mem_ctrls.totGap                  1764306709000                       # Total gap between requests
system.mem_ctrls.readPktSize::0                     0                       # Read request sizes (log2)
system.mem_ctrls.readPktSize::1                     0                       # Read request sizes (log2)
system.mem_ctrls.readPktSize::2                     0                       # Read request sizes (log2)
system.mem_ctrls.readPktSize::3                     0                       # Read request sizes (log2)
system.mem_ctrls.readPktSize::4                     0                       # Read request sizes (log2)
system.mem_ctrls.readPktSize::5                     0                       # Read request sizes (log2)
system.mem_ctrls.readPktSize::6               5881907                       # Read request sizes (log2)
system.mem_ctrls.writePktSize::0                    0                       # Write request sizes (log2)
system.mem_ctrls.writePktSize::1                    0                       # Write request sizes (log2)
system.mem_ctrls.writePktSize::2                    0                       # Write request sizes (log2)
system.mem_ctrls.writePktSize::3                    0                       # Write request sizes (log2)
system.mem_ctrls.writePktSize::4                    0                       # Write request sizes (log2)
system.mem_ctrls.writePktSize::5                    0                       # Write request sizes (log2)
system.mem_ctrls.writePktSize::6              2671318                       # Write request sizes (log2)
system.mem_ctrls.rdQLenPdf::0                 5879331                       # What read queue length does an incoming req see
system.mem_ctrls.rdQLenPdf::1                    1383                       # What read queue length does an incoming req see
system.mem_ctrls.rdQLenPdf::2                       0                       # What read queue length does an incoming req see
system.mem_ctrls.rdQLenPdf::3                       0                       # What read queue length does an incoming req see
system.mem_ctrls.rdQLenPdf::4                       0                       # What read queue length does an incoming req see
system.mem_ctrls.rdQLenPdf::5                       0                       # What read queue length does an incoming req see
system.mem_ctrls.rdQLenPdf::6                       0                       # What read queue length does an incoming req see
system.mem_ctrls.rdQLenPdf::7                       0                       # What read queue length does an incoming req see
system.mem_ctrls.rdQLenPdf::8                       0                       # What read queue length does an incoming req see
system.mem_ctrls.rdQLenPdf::9                       0                       # What read queue length does an incoming req see
system.mem_ctrls.rdQLenPdf::10                      0                       # What read queue length does an incoming req see
system.mem_ctrls.rdQLenPdf::11                      0                       # What read queue length does an incoming req see
system.mem_ctrls.rdQLenPdf::12                      0                       # What read queue length does an incoming req see
system.mem_ctrls.rdQLenPdf::13                      0                       # What read queue length does an incoming req see
system.mem_ctrls.rdQLenPdf::14                      0                       # What read queue length does an incoming req see
system.mem_ctrls.rdQLenPdf::15                      0                       # What read queue length does an incoming req see
system.mem_ctrls.rdQLenPdf::16                      0                       # What read queue length does an incoming req see
system.mem_ctrls.rdQLenPdf::17                      0                       # What read queue length does an incoming req see
system.mem_ctrls.rdQLenPdf::18                      0                       # What read queue length does an incoming req see
system.mem_ctrls.rdQLenPdf::19                      0                       # What read queue length does an incoming req see
system.mem_ctrls.rdQLenPdf::20                      0                       # What read queue length does an incoming req see
system.mem_ctrls.rdQLenPdf::21                      0                       # What read queue length does an incoming req see
system.mem_ctrls.rdQLenPdf::22                      0                       # What read queue length does an incoming req see
system.mem_ctrls.rdQLenPdf::23                      0                       # What read queue length does an incoming req see
system.mem_ctrls.rdQLenPdf::24                      0                       # What read queue length does an incoming req see
system.mem_ctrls.rdQLenPdf::25                      0                       # What read queue length does an incoming req see
system.mem_ctrls.rdQLenPdf::26                      0                       # What read queue length does an incoming req see
system.mem_ctrls.rdQLenPdf::27                      0                       # What read queue length does an incoming req see
system.mem_ctrls.rdQLenPdf::28                      0                       # What read queue length does an incoming req see
system.mem_ctrls.rdQLenPdf::29                      0                       # What read queue length does an incoming req see
system.mem_ctrls.rdQLenPdf::30                      0                       # What read queue length does an incoming req see
system.mem_ctrls.rdQLenPdf::31                      0                       # What read queue length does an incoming req see
system.mem_ctrls.wrQLenPdf::0                       0                       # What write queue length does an incoming req see
system.mem_ctrls.wrQLenPdf::1                       0                       # What write queue length does an incoming req see
system.mem_ctrls.wrQLenPdf::2                       0                       # What write queue length does an incoming req see
system.mem_ctrls.wrQLenPdf::3                       0                       # What write queue length does an incoming req see
system.mem_ctrls.wrQLenPdf::4                       0                       # What write queue length does an incoming req see
system.mem_ctrls.wrQLenPdf::5                       0                       # What write queue length does an incoming req see
system.mem_ctrls.wrQLenPdf::6                       0                       # What write queue length does an incoming req see
system.mem_ctrls.wrQLenPdf::7                       0                       # What write queue length does an incoming req see
system.mem_ctrls.wrQLenPdf::8                       0                       # What write queue length does an incoming req see
system.mem_ctrls.wrQLenPdf::9                       0                       # What write queue length does an incoming req see
system.mem_ctrls.wrQLenPdf::10                      0                       # What write queue length does an incoming req see
system.mem_ctrls.wrQLenPdf::11                      0                       # What write queue length does an incoming req see
system.mem_ctrls.wrQLenPdf::12                      0                       # What write queue length does an incoming req see
system.mem_ctrls.wrQLenPdf::13                      0                       # What write queue length does an incoming req see
system.mem_ctrls.wrQLenPdf::14                      0                       # What write queue length does an incoming req see
system.mem_ctrls.wrQLenPdf::15                  57367                       # What write queue length does an incoming req see
system.mem_ctrls.wrQLenPdf::16                  76797                       # What write queue length does an incoming req see
system.mem_ctrls.wrQLenPdf::17                 130728                       # What write queue length does an incoming req see
system.mem_ctrls.wrQLenPdf::18                 158860                       # What write queue length does an incoming req see
system.mem_ctrls.wrQLenPdf::19                 161735                       # What write queue length does an incoming req see
system.mem_ctrls.wrQLenPdf::20                 162638                       # What write queue length does an incoming req see
system.mem_ctrls.wrQLenPdf::21                 162678                       # What write queue length does an incoming req see
system.mem_ctrls.wrQLenPdf::22                 162606                       # What write queue length does an incoming req see
system.mem_ctrls.wrQLenPdf::23                 161760                       # What write queue length does an incoming req see
system.mem_ctrls.wrQLenPdf::24                 161865                       # What write queue length does an incoming req see
system.mem_ctrls.wrQLenPdf::25                 161399                       # What write queue length does an incoming req see
system.mem_ctrls.wrQLenPdf::26                 161032                       # What write queue length does an incoming req see
system.mem_ctrls.wrQLenPdf::27                 159733                       # What write queue length does an incoming req see
system.mem_ctrls.wrQLenPdf::28                 159362                       # What write queue length does an incoming req see
system.mem_ctrls.wrQLenPdf::29                 158986                       # What write queue length does an incoming req see
system.mem_ctrls.wrQLenPdf::30                 157838                       # What write queue length does an incoming req see
system.mem_ctrls.wrQLenPdf::31                 157394                       # What write queue length does an incoming req see
system.mem_ctrls.wrQLenPdf::32                 157313                       # What write queue length does an incoming req see
system.mem_ctrls.wrQLenPdf::33                    758                       # What write queue length does an incoming req see
system.mem_ctrls.wrQLenPdf::34                    164                       # What write queue length does an incoming req see
system.mem_ctrls.wrQLenPdf::35                     43                       # What write queue length does an incoming req see
system.mem_ctrls.wrQLenPdf::36                     22                       # What write queue length does an incoming req see
system.mem_ctrls.wrQLenPdf::37                     13                       # What write queue length does an incoming req see
system.mem_ctrls.wrQLenPdf::38                      7                       # What write queue length does an incoming req see
system.mem_ctrls.wrQLenPdf::39                      5                       # What write queue length does an incoming req see
system.mem_ctrls.wrQLenPdf::40                      3                       # What write queue length does an incoming req see
system.mem_ctrls.wrQLenPdf::41                      0                       # What write queue length does an incoming req see
system.mem_ctrls.wrQLenPdf::42                      0                       # What write queue length does an incoming req see
system.mem_ctrls.wrQLenPdf::43                      0                       # What write queue length does an incoming req see
system.mem_ctrls.wrQLenPdf::44                      0                       # What write queue length does an incoming req see
system.mem_ctrls.wrQLenPdf::45                      0                       # What write queue length does an incoming req see
system.mem_ctrls.wrQLenPdf::46                      0                       # What write queue length does an incoming req see
system.mem_ctrls.wrQLenPdf::47                      0                       # What write queue length does an incoming req see
system.mem_ctrls.wrQLenPdf::48                      0                       # What write queue length does an incoming req see
system.mem_ctrls.wrQLenPdf::49                      0                       # What write queue length does an incoming req see
system.mem_ctrls.wrQLenPdf::50                      0                       # What write queue length does an incoming req see
system.mem_ctrls.wrQLenPdf::51                      0                       # What write queue length does an incoming req see
system.mem_ctrls.wrQLenPdf::52                      0                       # What write queue length does an incoming req see
system.mem_ctrls.wrQLenPdf::53                      0                       # What write queue length does an incoming req see
system.mem_ctrls.wrQLenPdf::54                      0                       # What write queue length does an incoming req see
system.mem_ctrls.wrQLenPdf::55                      0                       # What write queue length does an incoming req see
system.mem_ctrls.wrQLenPdf::56                      0                       # What write queue length does an incoming req see
system.mem_ctrls.wrQLenPdf::57                      0                       # What write queue length does an incoming req see
system.mem_ctrls.wrQLenPdf::58                      0                       # What write queue length does an incoming req see
system.mem_ctrls.wrQLenPdf::59                      0                       # What write queue length does an incoming req see
system.mem_ctrls.wrQLenPdf::60                      0                       # What write queue length does an incoming req see
system.mem_ctrls.wrQLenPdf::61                      0                       # What write queue length does an incoming req see
system.mem_ctrls.wrQLenPdf::62                      0                       # What write queue length does an incoming req see
system.mem_ctrls.wrQLenPdf::63                      0                       # What write queue length does an incoming req see
system.mem_ctrls.bytesPerActivate::samples      3734133                       # Bytes accessed per row activation
system.mem_ctrls.bytesPerActivate::mean    146.570994                       # Bytes accessed per row activation
system.mem_ctrls.bytesPerActivate::gmean    89.612417                       # Bytes accessed per row activation
system.mem_ctrls.bytesPerActivate::stdev   229.631527                       # Bytes accessed per row activation
system.mem_ctrls.bytesPerActivate::0-127      3001410     80.38%     80.38% # Bytes accessed per row activation
system.mem_ctrls.bytesPerActivate::128-255       272911      7.31%     87.69% # Bytes accessed per row activation
system.mem_ctrls.bytesPerActivate::256-383        97567      2.61%     90.30% # Bytes accessed per row activation
system.mem_ctrls.bytesPerActivate::384-511        64771      1.73%     92.03% # Bytes accessed per row activation
system.mem_ctrls.bytesPerActivate::512-639        52561      1.41%     93.44% # Bytes accessed per row activation
system.mem_ctrls.bytesPerActivate::640-767        32105      0.86%     94.30% # Bytes accessed per row activation
system.mem_ctrls.bytesPerActivate::768-895        24406      0.65%     94.95% # Bytes accessed per row activation
system.mem_ctrls.bytesPerActivate::896-1023        18759      0.50%     95.46% # Bytes accessed per row activation
system.mem_ctrls.bytesPerActivate::1024-1151       169643      4.54%    100.00% # Bytes accessed per row activation
system.mem_ctrls.bytesPerActivate::total      3734133                       # Bytes accessed per row activation
system.mem_ctrls.rdPerTurnAround::samples       157291                       # Reads before turning the bus around for writes
system.mem_ctrls.rdPerTurnAround::mean      37.389476                       # Reads before turning the bus around for writes
system.mem_ctrls.rdPerTurnAround::stdev   1360.032674                       # Reads before turning the bus around for writes
system.mem_ctrls.rdPerTurnAround::0-16383       157279     99.99%     99.99% # Reads before turning the bus around for writes
system.mem_ctrls.rdPerTurnAround::16384-32767            1      0.00%     99.99% # Reads before turning the bus around for writes
system.mem_ctrls.rdPerTurnAround::32768-49151            2      0.00%     99.99% # Reads before turning the bus around for writes
system.mem_ctrls.rdPerTurnAround::49152-65535            3      0.00%    100.00% # Reads before turning the bus around for writes
system.mem_ctrls.rdPerTurnAround::81920-98303            1      0.00%    100.00% # Reads before turning the bus around for writes
system.mem_ctrls.rdPerTurnAround::131072-147455            2      0.00%    100.00% # Reads before turning the bus around for writes
system.mem_ctrls.rdPerTurnAround::147456-163839            1      0.00%    100.00% # Reads before turning the bus around for writes
system.mem_ctrls.rdPerTurnAround::180224-196607            1      0.00%    100.00% # Reads before turning the bus around for writes
system.mem_ctrls.rdPerTurnAround::409600-425983            1      0.00%    100.00% # Reads before turning the bus around for writes
system.mem_ctrls.rdPerTurnAround::total        157291                       # Reads before turning the bus around for writes
system.mem_ctrls.wrPerTurnAround::samples       157291                       # Writes before turning the bus around for reads
system.mem_ctrls.wrPerTurnAround::mean      16.981893                       # Writes before turning the bus around for reads
system.mem_ctrls.wrPerTurnAround::gmean     16.945589                       # Writes before turning the bus around for reads
system.mem_ctrls.wrPerTurnAround::stdev      1.130604                       # Writes before turning the bus around for reads
system.mem_ctrls.wrPerTurnAround::16            79302     50.42%     50.42% # Writes before turning the bus around for reads
system.mem_ctrls.wrPerTurnAround::17            16870     10.73%     61.14% # Writes before turning the bus around for reads
system.mem_ctrls.wrPerTurnAround::18            50486     32.10%     93.24% # Writes before turning the bus around for reads
system.mem_ctrls.wrPerTurnAround::19             7472      4.75%     97.99% # Writes before turning the bus around for reads
system.mem_ctrls.wrPerTurnAround::20             2172      1.38%     99.37% # Writes before turning the bus around for reads
system.mem_ctrls.wrPerTurnAround::21              679      0.43%     99.80% # Writes before turning the bus around for reads
system.mem_ctrls.wrPerTurnAround::22              191      0.12%     99.92% # Writes before turning the bus around for reads
system.mem_ctrls.wrPerTurnAround::23               65      0.04%     99.97% # Writes before turning the bus around for reads
system.mem_ctrls.wrPerTurnAround::24               29      0.02%     99.98% # Writes before turning the bus around for reads
system.mem_ctrls.wrPerTurnAround::25               10      0.01%     99.99% # Writes before turning the bus around for reads
system.mem_ctrls.wrPerTurnAround::26                6      0.00%     99.99% # Writes before turning the bus around for reads
system.mem_ctrls.wrPerTurnAround::27                2      0.00%    100.00% # Writes before turning the bus around for reads
system.mem_ctrls.wrPerTurnAround::29                2      0.00%    100.00% # Writes before turning the bus around for reads
system.mem_ctrls.wrPerTurnAround::30                4      0.00%    100.00% # Writes before turning the bus around for reads
system.mem_ctrls.wrPerTurnAround::31                1      0.00%    100.00% # Writes before turning the bus around for reads
system.mem_ctrls.wrPerTurnAround::total        157291                       # Writes before turning the bus around for reads
system.mem_ctrls.totQLat                  76112505499                       # Total ticks spent queuing
system.mem_ctrls.totMemAccLat            186375892999                       # Total ticks spent from burst creation until serviced by the DRAM
system.mem_ctrls.totBusLat                29403570000                       # Total ticks spent in databus transfers
system.mem_ctrls.avgQLat                     12942.73                       # Average queueing delay per DRAM burst
system.mem_ctrls.avgBusLat                    5000.00                       # Average bus latency per DRAM burst
system.mem_ctrls.avgMemAccLat                31692.73                       # Average memory access latency per DRAM burst
system.mem_ctrls.avgRdBW                       213.32                       # Average DRAM read bandwidth in MiByte/s
system.mem_ctrls.avgWrBW                        96.89                       # Average achieved write bandwidth in MiByte/s
system.mem_ctrls.avgRdBWSys                    213.37                       # Average system read bandwidth in MiByte/s
system.mem_ctrls.avgWrBWSys                     96.90                       # Average system write bandwidth in MiByte/s
system.mem_ctrls.peakBW                      12800.00                       # Theoretical peak bandwidth in MiByte/s
system.mem_ctrls.busUtil                         2.42                       # Data bus utilization in percentage
system.mem_ctrls.busUtilRead                     1.67                       # Data bus utilization in percentage for reads
system.mem_ctrls.busUtilWrite                    0.76                       # Data bus utilization in percentage for writes
system.mem_ctrls.avgRdQLen                       1.00                       # Average read queue length when enqueuing
system.mem_ctrls.avgWrQLen                      24.84                       # Average write queue length when enqueuing
system.mem_ctrls.readRowHits                  3791310                       # Number of row buffer hits during reads
system.mem_ctrls.writeRowHits                 1026363                       # Number of row buffer hits during writes
system.mem_ctrls.readRowHitRate                 64.47                       # Row buffer hit rate for reads
system.mem_ctrls.writeRowHitRate                38.42                       # Row buffer hit rate for writes
system.mem_ctrls.avgGap                     206273.86                       # Average gap between requests
system.mem_ctrls.pageHitRate                    56.34                       # Row buffer hit rate, read and write combined
system.mem_ctrls_0.actEnergy              14179732560                       # Energy for activate commands per rank (pJ)
system.mem_ctrls_0.preEnergy               7736957250                       # Energy for precharge commands per rank (pJ)
system.mem_ctrls_0.readEnergy             23041356000                       # Energy for read commands per rank (pJ)
system.mem_ctrls_0.writeEnergy             8670304800                       # Energy for write commands per rank (pJ)
system.mem_ctrls_0.refreshEnergy         115458885360                       # Energy for refresh commands per rank (pJ)
system.mem_ctrls_0.actBackEnergy         598661888265                       # Energy for active background per rank (pJ)
system.mem_ctrls_0.preBackEnergy         535490223000                       # Energy for precharge background per rank (pJ)
system.mem_ctrls_0.totalEnergy           1303239347235                       # Total energy per rank (pJ)
system.mem_ctrls_0.averagePower            737.242926                       # Core power per rank (mW)
system.mem_ctrls_0.memoryStateTime::IDLE 885624842500                       # Time in different power states
system.mem_ctrls_0.memoryStateTime::REF   58913920000                       # Time in different power states
system.mem_ctrls_0.memoryStateTime::PRE_PDN            0                       # Time in different power states
system.mem_ctrls_0.memoryStateTime::ACT  819761361000                       # Time in different power states
system.mem_ctrls_0.memoryStateTime::ACT_PDN            0                       # Time in different power states
system.mem_ctrls_1.actEnergy              14080620960                       # Energy for activate commands per rank (pJ)
system.mem_ctrls_1.preEnergy               7682878500                       # Energy for precharge commands per rank (pJ)
system.mem_ctrls_1.readEnergy             22956351600                       # Energy for read commands per rank (pJ)
system.mem_ctrls_1.writeEnergy             8638643520                       # Energy for write commands per rank (pJ)
system.mem_ctrls_1.refreshEnergy         115458885360                       # Energy for refresh commands per rank (pJ)
system.mem_ctrls_1.actBackEnergy         597732222825                       # Energy for active background per rank (pJ)
system.mem_ctrls_1.preBackEnergy         536305719000                       # Energy for precharge background per rank (pJ)
system.mem_ctrls_1.totalEnergy           1302855321765                       # Total energy per rank (pJ)
system.mem_ctrls_1.averagePower            737.025682                       # Core power per rank (mW)
system.mem_ctrls_1.memoryStateTime::IDLE 886805767750                       # Time in different power states
system.mem_ctrls_1.memoryStateTime::REF   58913920000                       # Time in different power states
system.mem_ctrls_1.memoryStateTime::PRE_PDN            0                       # Time in different power states
system.mem_ctrls_1.memoryStateTime::ACT  818582272250                       # Time in different power states
system.mem_ctrls_1.memoryStateTime::ACT_PDN            0                       # Time in different power states
system.cpu_voltage_domain.voltage                   1                       # Voltage in Volts
system.cpu_clk_domain.clock                       500                       # Clock period in ticks
system.cpu0.apic_clk_domain.clock                8000                       # Clock period in ticks
system.cpu0.numCycles                      3532905902                       # number of cpu cycles simulated
system.cpu0.numWorkItemsStarted                     0                       # number of work items this cpu started
system.cpu0.numWorkItemsCompleted                   0                       # number of work items this cpu completed
system.cpu0.kern.inst.arm                           0                       # number of arm instructions executed
system.cpu0.kern.inst.quiesce                       0                       # number of quiesce instructions executed
system.cpu0.committedInsts                    1454036                       # Number of instructions committed
system.cpu0.committedOps                      3160694                       # Number of ops (including micro ops) committed
system.cpu0.num_int_alu_accesses              3092578                       # Number of integer alu accesses
system.cpu0.num_fp_alu_accesses                    39                       # Number of float alu accesses
system.cpu0.num_func_calls                      93004                       # number of times a function call or return occured
system.cpu0.num_conditional_control_insts       209046                       # number of instructions that are conditional controls
system.cpu0.num_int_insts                     3092578                       # number of integer instructions
system.cpu0.num_fp_insts                           39                       # number of float instructions
system.cpu0.num_int_register_reads            6291698                       # number of times the integer registers were read
system.cpu0.num_int_register_writes           2559842                       # number of times the integer registers were written
system.cpu0.num_fp_register_reads                  63                       # number of times the floating registers were read
system.cpu0.num_fp_register_writes                 31                       # number of times the floating registers were written
system.cpu0.num_cc_register_reads             1741501                       # number of times the CC registers were read
system.cpu0.num_cc_register_writes             944546                       # number of times the CC registers were written
system.cpu0.num_mem_refs                       748285                       # number of memory refs
system.cpu0.num_load_insts                     460699                       # Number of load instructions
system.cpu0.num_store_insts                    287586                       # Number of store instructions
system.cpu0.num_idle_cycles              3526494731.398090                       # Number of idle cycles
system.cpu0.num_busy_cycles              6411170.601910                       # Number of busy cycles
system.cpu0.not_idle_fraction                0.001815                       # Percentage of non-idle cycles
system.cpu0.idle_fraction                    0.998185                       # Percentage of idle cycles
system.cpu0.Branches                           330524                       # Number of branches fetched
system.cpu0.op_class::No_OpClass                54604      1.73%      1.73% # Class of executed instruction
system.cpu0.op_class::IntAlu                  2333782     73.84%     75.56% # Class of executed instruction
system.cpu0.op_class::IntMult                    5859      0.19%     75.75% # Class of executed instruction
system.cpu0.op_class::IntDiv                    18157      0.57%     76.32% # Class of executed instruction
system.cpu0.op_class::FloatAdd                     30      0.00%     76.33% # Class of executed instruction
system.cpu0.op_class::FloatCmp                      0      0.00%     76.33% # Class of executed instruction
system.cpu0.op_class::FloatCvt                      0      0.00%     76.33% # Class of executed instruction
system.cpu0.op_class::FloatMult                     0      0.00%     76.33% # Class of executed instruction
system.cpu0.op_class::FloatDiv                      0      0.00%     76.33% # Class of executed instruction
system.cpu0.op_class::FloatSqrt                     0      0.00%     76.33% # Class of executed instruction
system.cpu0.op_class::SimdAdd                       0      0.00%     76.33% # Class of executed instruction
system.cpu0.op_class::SimdAddAcc                    0      0.00%     76.33% # Class of executed instruction
system.cpu0.op_class::SimdAlu                       0      0.00%     76.33% # Class of executed instruction
system.cpu0.op_class::SimdCmp                       0      0.00%     76.33% # Class of executed instruction
system.cpu0.op_class::SimdCvt                       0      0.00%     76.33% # Class of executed instruction
system.cpu0.op_class::SimdMisc                      0      0.00%     76.33% # Class of executed instruction
system.cpu0.op_class::SimdMult                      0      0.00%     76.33% # Class of executed instruction
system.cpu0.op_class::SimdMultAcc                   0      0.00%     76.33% # Class of executed instruction
system.cpu0.op_class::SimdShift                     0      0.00%     76.33% # Class of executed instruction
system.cpu0.op_class::SimdShiftAcc                  0      0.00%     76.33% # Class of executed instruction
system.cpu0.op_class::SimdSqrt                      0      0.00%     76.33% # Class of executed instruction
system.cpu0.op_class::SimdFloatAdd                  0      0.00%     76.33% # Class of executed instruction
system.cpu0.op_class::SimdFloatAlu                  0      0.00%     76.33% # Class of executed instruction
system.cpu0.op_class::SimdFloatCmp                  0      0.00%     76.33% # Class of executed instruction
system.cpu0.op_class::SimdFloatCvt                  0      0.00%     76.33% # Class of executed instruction
system.cpu0.op_class::SimdFloatDiv                  0      0.00%     76.33% # Class of executed instruction
system.cpu0.op_class::SimdFloatMisc                 0      0.00%     76.33% # Class of executed instruction
system.cpu0.op_class::SimdFloatMult                 0      0.00%     76.33% # Class of executed instruction
system.cpu0.op_class::SimdFloatMultAcc              0      0.00%     76.33% # Class of executed instruction
system.cpu0.op_class::SimdFloatSqrt                 0      0.00%     76.33% # Class of executed instruction
system.cpu0.op_class::MemRead                  460699     14.58%     90.90% # Class of executed instruction
system.cpu0.op_class::MemWrite                 287586      9.10%    100.00% # Class of executed instruction
system.cpu0.op_class::IprAccess                     0      0.00%    100.00% # Class of executed instruction
system.cpu0.op_class::InstPrefetch                  0      0.00%    100.00% # Class of executed instruction
system.cpu0.op_class::total                   3160717                       # Class of executed instruction
system.cpu1.apic_clk_domain.clock                8000                       # Clock period in ticks
system.cpu1.numCycles                      3530329084                       # number of cpu cycles simulated
system.cpu1.numWorkItemsStarted                     0                       # number of work items this cpu started
system.cpu1.numWorkItemsCompleted                   0                       # number of work items this cpu completed
system.cpu1.kern.inst.arm                           0                       # number of arm instructions executed
system.cpu1.kern.inst.quiesce                       0                       # number of quiesce instructions executed
system.cpu1.committedInsts                  717134456                       # Number of instructions committed
system.cpu1.committedOps                   1064367877                       # Number of ops (including micro ops) committed
system.cpu1.num_int_alu_accesses            463877397                       # Number of integer alu accesses
system.cpu1.num_fp_alu_accesses             708837843                       # Number of float alu accesses
system.cpu1.num_func_calls                     898787                       # number of times a function call or return occured
system.cpu1.num_conditional_control_insts     10832244                       # number of instructions that are conditional controls
system.cpu1.num_int_insts                   463877397                       # number of integer instructions
system.cpu1.num_fp_insts                    708837843                       # number of float instructions
system.cpu1.num_int_register_reads          971842575                       # number of times the integer registers were read
system.cpu1.num_int_register_writes         343760783                       # number of times the integer registers were written
system.cpu1.num_fp_register_reads          1593836311                       # number of times the floating registers were read
system.cpu1.num_fp_register_writes          654311799                       # number of times the floating registers were written
system.cpu1.num_cc_register_reads           111632411                       # number of times the CC registers were read
system.cpu1.num_cc_register_writes          201625908                       # number of times the CC registers were written
system.cpu1.num_mem_refs                    129340678                       # number of memory refs
system.cpu1.num_load_insts                   75436557                       # Number of load instructions
system.cpu1.num_store_insts                  53904121                       # Number of store instructions
system.cpu1.num_idle_cycles              11379815.391854                       # Number of idle cycles
system.cpu1.num_busy_cycles              3518949268.608146                       # Number of busy cycles
system.cpu1.not_idle_fraction                0.996777                       # Percentage of non-idle cycles
system.cpu1.idle_fraction                    0.003223                       # Percentage of idle cycles
system.cpu1.Branches                         12021988                       # Number of branches fetched
system.cpu1.op_class::No_OpClass               313179      0.03%      0.03% # Class of executed instruction
system.cpu1.op_class::IntAlu                431322935     40.52%     40.55% # Class of executed instruction
system.cpu1.op_class::IntMult                   89003      0.01%     40.56% # Class of executed instruction
system.cpu1.op_class::IntDiv                     1808      0.00%     40.56% # Class of executed instruction
system.cpu1.op_class::FloatAdd              503316796     47.29%     87.85% # Class of executed instruction
system.cpu1.op_class::FloatCmp                      0      0.00%     87.85% # Class of executed instruction
system.cpu1.op_class::FloatCvt                      0      0.00%     87.85% # Class of executed instruction
system.cpu1.op_class::FloatMult                     0      0.00%     87.85% # Class of executed instruction
system.cpu1.op_class::FloatDiv                      0      0.00%     87.85% # Class of executed instruction
system.cpu1.op_class::FloatSqrt                     0      0.00%     87.85% # Class of executed instruction
system.cpu1.op_class::SimdAdd                       0      0.00%     87.85% # Class of executed instruction
system.cpu1.op_class::SimdAddAcc                    0      0.00%     87.85% # Class of executed instruction
system.cpu1.op_class::SimdAlu                       0      0.00%     87.85% # Class of executed instruction
system.cpu1.op_class::SimdCmp                       0      0.00%     87.85% # Class of executed instruction
system.cpu1.op_class::SimdCvt                       0      0.00%     87.85% # Class of executed instruction
system.cpu1.op_class::SimdMisc                      0      0.00%     87.85% # Class of executed instruction
system.cpu1.op_class::SimdMult                      0      0.00%     87.85% # Class of executed instruction
system.cpu1.op_class::SimdMultAcc                   0      0.00%     87.85% # Class of executed instruction
system.cpu1.op_class::SimdShift                     0      0.00%     87.85% # Class of executed instruction
system.cpu1.op_class::SimdShiftAcc                  0      0.00%     87.85% # Class of executed instruction
system.cpu1.op_class::SimdSqrt                      0      0.00%     87.85% # Class of executed instruction
system.cpu1.op_class::SimdFloatAdd                  0      0.00%     87.85% # Class of executed instruction
system.cpu1.op_class::SimdFloatAlu                  0      0.00%     87.85% # Class of executed instruction
system.cpu1.op_class::SimdFloatCmp                  0      0.00%     87.85% # Class of executed instruction
system.cpu1.op_class::SimdFloatCvt                  0      0.00%     87.85% # Class of executed instruction
system.cpu1.op_class::SimdFloatDiv                  0      0.00%     87.85% # Class of executed instruction
system.cpu1.op_class::SimdFloatMisc                 0      0.00%     87.85% # Class of executed instruction
system.cpu1.op_class::SimdFloatMult                 0      0.00%     87.85% # Class of executed instruction
system.cpu1.op_class::SimdFloatMultAcc              0      0.00%     87.85% # Class of executed instruction
system.cpu1.op_class::SimdFloatSqrt                 0      0.00%     87.85% # Class of executed instruction
system.cpu1.op_class::MemRead                75436557      7.09%     94.94% # Class of executed instruction
system.cpu1.op_class::MemWrite               53904121      5.06%    100.00% # Class of executed instruction
system.cpu1.op_class::IprAccess                     0      0.00%    100.00% # Class of executed instruction
system.cpu1.op_class::InstPrefetch                  0      0.00%    100.00% # Class of executed instruction
system.cpu1.op_class::total                1064384399                       # Class of executed instruction
system.cpu2.apic_clk_domain.clock                8000                       # Clock period in ticks
system.cpu2.numCycles                      3527434663                       # number of cpu cycles simulated
system.cpu2.numWorkItemsStarted                     0                       # number of work items this cpu started
system.cpu2.numWorkItemsCompleted                   0                       # number of work items this cpu completed
system.cpu2.kern.inst.arm                           0                       # number of arm instructions executed
system.cpu2.kern.inst.quiesce                       0                       # number of quiesce instructions executed
system.cpu2.committedInsts                    1228095                       # Number of instructions committed
system.cpu2.committedOps                      2656958                       # Number of ops (including micro ops) committed
system.cpu2.num_int_alu_accesses              2598010                       # Number of integer alu accesses
system.cpu2.num_fp_alu_accesses                     0                       # Number of float alu accesses
system.cpu2.num_func_calls                      73294                       # number of times a function call or return occured
system.cpu2.num_conditional_control_insts       186753                       # number of instructions that are conditional controls
system.cpu2.num_int_insts                     2598010                       # number of integer instructions
system.cpu2.num_fp_insts                            0                       # number of float instructions
system.cpu2.num_int_register_reads            5279633                       # number of times the integer registers were read
system.cpu2.num_int_register_writes           2157299                       # number of times the integer registers were written
system.cpu2.num_fp_register_reads                   0                       # number of times the floating registers were read
system.cpu2.num_fp_register_writes                  0                       # number of times the floating registers were written
system.cpu2.num_cc_register_reads             1498108                       # number of times the CC registers were read
system.cpu2.num_cc_register_writes             783833                       # number of times the CC registers were written
system.cpu2.num_mem_refs                       632479                       # number of memory refs
system.cpu2.num_load_insts                     393512                       # Number of load instructions
system.cpu2.num_store_insts                    238967                       # Number of store instructions
system.cpu2.num_idle_cycles              3522087206.927804                       # Number of idle cycles
system.cpu2.num_busy_cycles              5347456.072196                       # Number of busy cycles
system.cpu2.not_idle_fraction                0.001516                       # Percentage of non-idle cycles
system.cpu2.idle_fraction                    0.998484                       # Percentage of idle cycles
system.cpu2.Branches                           283960                       # Number of branches fetched
system.cpu2.op_class::No_OpClass                50499      1.90%      1.90% # Class of executed instruction
system.cpu2.op_class::IntAlu                  1950705     73.42%     75.32% # Class of executed instruction
system.cpu2.op_class::IntMult                    5317      0.20%     75.52% # Class of executed instruction
system.cpu2.op_class::IntDiv                    17962      0.68%     76.20% # Class of executed instruction
system.cpu2.op_class::FloatAdd                      0      0.00%     76.20% # Class of executed instruction
system.cpu2.op_class::FloatCmp                      0      0.00%     76.20% # Class of executed instruction
system.cpu2.op_class::FloatCvt                      0      0.00%     76.20% # Class of executed instruction
system.cpu2.op_class::FloatMult                     0      0.00%     76.20% # Class of executed instruction
system.cpu2.op_class::FloatDiv                      0      0.00%     76.20% # Class of executed instruction
system.cpu2.op_class::FloatSqrt                     0      0.00%     76.20% # Class of executed instruction
system.cpu2.op_class::SimdAdd                       0      0.00%     76.20% # Class of executed instruction
system.cpu2.op_class::SimdAddAcc                    0      0.00%     76.20% # Class of executed instruction
system.cpu2.op_class::SimdAlu                       0      0.00%     76.20% # Class of executed instruction
system.cpu2.op_class::SimdCmp                       0      0.00%     76.20% # Class of executed instruction
system.cpu2.op_class::SimdCvt                       0      0.00%     76.20% # Class of executed instruction
system.cpu2.op_class::SimdMisc                      0      0.00%     76.20% # Class of executed instruction
system.cpu2.op_class::SimdMult                      0      0.00%     76.20% # Class of executed instruction
system.cpu2.op_class::SimdMultAcc                   0      0.00%     76.20% # Class of executed instruction
system.cpu2.op_class::SimdShift                     0      0.00%     76.20% # Class of executed instruction
system.cpu2.op_class::SimdShiftAcc                  0      0.00%     76.20% # Class of executed instruction
system.cpu2.op_class::SimdSqrt                      0      0.00%     76.20% # Class of executed instruction
system.cpu2.op_class::SimdFloatAdd                  0      0.00%     76.20% # Class of executed instruction
system.cpu2.op_class::SimdFloatAlu                  0      0.00%     76.20% # Class of executed instruction
system.cpu2.op_class::SimdFloatCmp                  0      0.00%     76.20% # Class of executed instruction
system.cpu2.op_class::SimdFloatCvt                  0      0.00%     76.20% # Class of executed instruction
system.cpu2.op_class::SimdFloatDiv                  0      0.00%     76.20% # Class of executed instruction
system.cpu2.op_class::SimdFloatMisc                 0      0.00%     76.20% # Class of executed instruction
system.cpu2.op_class::SimdFloatMult                 0      0.00%     76.20% # Class of executed instruction
system.cpu2.op_class::SimdFloatMultAcc              0      0.00%     76.20% # Class of executed instruction
system.cpu2.op_class::SimdFloatSqrt                 0      0.00%     76.20% # Class of executed instruction
system.cpu2.op_class::MemRead                  393512     14.81%     91.01% # Class of executed instruction
system.cpu2.op_class::MemWrite                 238967      8.99%    100.00% # Class of executed instruction
system.cpu2.op_class::IprAccess                     0      0.00%    100.00% # Class of executed instruction
system.cpu2.op_class::InstPrefetch                  0      0.00%    100.00% # Class of executed instruction
system.cpu2.op_class::total                   2656962                       # Class of executed instruction
system.cpu3.apic_clk_domain.clock                8000                       # Clock period in ticks
system.cpu3.numCycles                      3526637633                       # number of cpu cycles simulated
system.cpu3.numWorkItemsStarted                     0                       # number of work items this cpu started
system.cpu3.numWorkItemsCompleted                   0                       # number of work items this cpu completed
system.cpu3.kern.inst.arm                           0                       # number of arm instructions executed
system.cpu3.kern.inst.quiesce                       0                       # number of quiesce instructions executed
system.cpu3.committedInsts                    3795053                       # Number of instructions committed
system.cpu3.committedOps                      7591238                       # Number of ops (including micro ops) committed
system.cpu3.num_int_alu_accesses              7454862                       # Number of integer alu accesses
system.cpu3.num_fp_alu_accesses                  1778                       # Number of float alu accesses
system.cpu3.num_func_calls                     197250                       # number of times a function call or return occured
system.cpu3.num_conditional_control_insts       640737                       # number of instructions that are conditional controls
system.cpu3.num_int_insts                     7454862                       # number of integer instructions
system.cpu3.num_fp_insts                         1778                       # number of float instructions
system.cpu3.num_int_register_reads           14833008                       # number of times the integer registers were read
system.cpu3.num_int_register_writes           6066032                       # number of times the integer registers were written
system.cpu3.num_fp_register_reads                2988                       # number of times the floating registers were read
system.cpu3.num_fp_register_writes               1416                       # number of times the floating registers were written
system.cpu3.num_cc_register_reads             4806889                       # number of times the CC registers were read
system.cpu3.num_cc_register_writes            2587861                       # number of times the CC registers were written
system.cpu3.num_mem_refs                      1715447                       # number of memory refs
system.cpu3.num_load_insts                    1112598                       # Number of load instructions
system.cpu3.num_store_insts                    602849                       # Number of store instructions
system.cpu3.num_idle_cycles              3510319972.847413                       # Number of idle cycles
system.cpu3.num_busy_cycles              16317660.152587                       # Number of busy cycles
system.cpu3.not_idle_fraction                0.004627                       # Percentage of non-idle cycles
system.cpu3.idle_fraction                    0.995373                       # Percentage of idle cycles
system.cpu3.Branches                           873195                       # Number of branches fetched
system.cpu3.op_class::No_OpClass                54823      0.72%      0.72% # Class of executed instruction
system.cpu3.op_class::IntAlu                  5794922     76.34%     77.06% # Class of executed instruction
system.cpu3.op_class::IntMult                    6381      0.08%     77.14% # Class of executed instruction
system.cpu3.op_class::IntDiv                    18412      0.24%     77.38% # Class of executed instruction
system.cpu3.op_class::FloatAdd                   1344      0.02%     77.40% # Class of executed instruction
system.cpu3.op_class::FloatCmp                      0      0.00%     77.40% # Class of executed instruction
system.cpu3.op_class::FloatCvt                      0      0.00%     77.40% # Class of executed instruction
system.cpu3.op_class::FloatMult                     0      0.00%     77.40% # Class of executed instruction
system.cpu3.op_class::FloatDiv                      0      0.00%     77.40% # Class of executed instruction
system.cpu3.op_class::FloatSqrt                     0      0.00%     77.40% # Class of executed instruction
system.cpu3.op_class::SimdAdd                       0      0.00%     77.40% # Class of executed instruction
system.cpu3.op_class::SimdAddAcc                    0      0.00%     77.40% # Class of executed instruction
system.cpu3.op_class::SimdAlu                       0      0.00%     77.40% # Class of executed instruction
system.cpu3.op_class::SimdCmp                       0      0.00%     77.40% # Class of executed instruction
system.cpu3.op_class::SimdCvt                       0      0.00%     77.40% # Class of executed instruction
system.cpu3.op_class::SimdMisc                      0      0.00%     77.40% # Class of executed instruction
system.cpu3.op_class::SimdMult                      0      0.00%     77.40% # Class of executed instruction
system.cpu3.op_class::SimdMultAcc                   0      0.00%     77.40% # Class of executed instruction
system.cpu3.op_class::SimdShift                     0      0.00%     77.40% # Class of executed instruction
system.cpu3.op_class::SimdShiftAcc                  0      0.00%     77.40% # Class of executed instruction
system.cpu3.op_class::SimdSqrt                      0      0.00%     77.40% # Class of executed instruction
system.cpu3.op_class::SimdFloatAdd                  0      0.00%     77.40% # Class of executed instruction
system.cpu3.op_class::SimdFloatAlu                  0      0.00%     77.40% # Class of executed instruction
system.cpu3.op_class::SimdFloatCmp                  0      0.00%     77.40% # Class of executed instruction
system.cpu3.op_class::SimdFloatCvt                  0      0.00%     77.40% # Class of executed instruction
system.cpu3.op_class::SimdFloatDiv                  0      0.00%     77.40% # Class of executed instruction
system.cpu3.op_class::SimdFloatMisc                 0      0.00%     77.40% # Class of executed instruction
system.cpu3.op_class::SimdFloatMult                 0      0.00%     77.40% # Class of executed instruction
system.cpu3.op_class::SimdFloatMultAcc              0      0.00%     77.40% # Class of executed instruction
system.cpu3.op_class::SimdFloatSqrt                 0      0.00%     77.40% # Class of executed instruction
system.cpu3.op_class::MemRead                 1112598     14.66%     92.06% # Class of executed instruction
system.cpu3.op_class::MemWrite                 602849      7.94%    100.00% # Class of executed instruction
system.cpu3.op_class::IprAccess                     0      0.00%    100.00% # Class of executed instruction
system.cpu3.op_class::InstPrefetch                  0      0.00%    100.00% # Class of executed instruction
system.cpu3.op_class::total                   7591329                       # Class of executed instruction
system.iobus.trans_dist::ReadReq                   82                       # Transaction distribution
system.iobus.trans_dist::ReadResp                  82                       # Transaction distribution
system.iobus.trans_dist::WriteReq                1826                       # Transaction distribution
system.iobus.trans_dist::WriteResp               1826                       # Transaction distribution
system.iobus.trans_dist::MessageReq                12                       # Transaction distribution
system.iobus.trans_dist::MessageResp               12                       # Transaction distribution
system.iobus.pkt_count_system.pc.south_bridge.io_apic.int_master::system.ruby.l1_cntrl0.sequencer.pio-slave-port            2                       # Packet count per connected master and slave (bytes)
system.iobus.pkt_count_system.pc.south_bridge.io_apic.int_master::system.ruby.l1_cntrl1.sequencer.pio-slave-port            4                       # Packet count per connected master and slave (bytes)
system.iobus.pkt_count_system.pc.south_bridge.io_apic.int_master::system.ruby.l1_cntrl2.sequencer.pio-slave-port            2                       # Packet count per connected master and slave (bytes)
system.iobus.pkt_count_system.pc.south_bridge.io_apic.int_master::system.ruby.l1_cntrl3.sequencer.pio-slave-port            2                       # Packet count per connected master and slave (bytes)
system.iobus.pkt_count_system.pc.south_bridge.io_apic.int_master::total           10                       # Packet count per connected master and slave (bytes)
system.iobus.pkt_count_system.ruby.l1_cntrl0.sequencer.mem-master-port::system.pc.south_bridge.io_apic.pio            8                       # Packet count per connected master and slave (bytes)
system.iobus.pkt_count_system.ruby.l1_cntrl0.sequencer.mem-master-port::system.ruby.l1_cntrl0.sequencer.pio-slave-port          896                       # Packet count per connected master and slave (bytes)
system.iobus.pkt_count_system.ruby.l1_cntrl0.sequencer.mem-master-port::system.ruby.l1_cntrl1.sequencer.pio-slave-port            2                       # Packet count per connected master and slave (bytes)
system.iobus.pkt_count_system.ruby.l1_cntrl0.sequencer.mem-master-port::total          906                       # Packet count per connected master and slave (bytes)
system.iobus.pkt_count_system.ruby.l1_cntrl1.sequencer.mem-master-port::system.pc.south_bridge.io_apic.pio           14                       # Packet count per connected master and slave (bytes)
system.iobus.pkt_count_system.ruby.l1_cntrl1.sequencer.mem-master-port::system.pc.com_1.pio          162                       # Packet count per connected master and slave (bytes)
system.iobus.pkt_count_system.ruby.l1_cntrl1.sequencer.mem-master-port::system.ruby.l1_cntrl0.sequencer.pio-slave-port            2                       # Packet count per connected master and slave (bytes)
system.iobus.pkt_count_system.ruby.l1_cntrl1.sequencer.mem-master-port::system.ruby.l1_cntrl1.sequencer.pio-slave-port          902                       # Packet count per connected master and slave (bytes)
system.iobus.pkt_count_system.ruby.l1_cntrl1.sequencer.mem-master-port::system.ruby.l1_cntrl2.sequencer.pio-slave-port            2                       # Packet count per connected master and slave (bytes)
system.iobus.pkt_count_system.ruby.l1_cntrl1.sequencer.mem-master-port::total         1082                       # Packet count per connected master and slave (bytes)
system.iobus.pkt_count_system.ruby.l1_cntrl2.sequencer.mem-master-port::system.pc.south_bridge.io_apic.pio            8                       # Packet count per connected master and slave (bytes)
system.iobus.pkt_count_system.ruby.l1_cntrl2.sequencer.mem-master-port::system.ruby.l1_cntrl2.sequencer.pio-slave-port          894                       # Packet count per connected master and slave (bytes)
system.iobus.pkt_count_system.ruby.l1_cntrl2.sequencer.mem-master-port::system.ruby.l1_cntrl3.sequencer.pio-slave-port            2                       # Packet count per connected master and slave (bytes)
system.iobus.pkt_count_system.ruby.l1_cntrl2.sequencer.mem-master-port::total          904                       # Packet count per connected master and slave (bytes)
system.iobus.pkt_count_system.ruby.l1_cntrl3.sequencer.mem-master-port::system.pc.south_bridge.io_apic.pio            6                       # Packet count per connected master and slave (bytes)
system.iobus.pkt_count_system.ruby.l1_cntrl3.sequencer.mem-master-port::system.pc.com_1.pio           22                       # Packet count per connected master and slave (bytes)
system.iobus.pkt_count_system.ruby.l1_cntrl3.sequencer.mem-master-port::system.ruby.l1_cntrl0.sequencer.pio-slave-port            2                       # Packet count per connected master and slave (bytes)
system.iobus.pkt_count_system.ruby.l1_cntrl3.sequencer.mem-master-port::system.ruby.l1_cntrl1.sequencer.pio-slave-port            2                       # Packet count per connected master and slave (bytes)
system.iobus.pkt_count_system.ruby.l1_cntrl3.sequencer.mem-master-port::system.ruby.l1_cntrl2.sequencer.pio-slave-port            2                       # Packet count per connected master and slave (bytes)
system.iobus.pkt_count_system.ruby.l1_cntrl3.sequencer.mem-master-port::system.ruby.l1_cntrl3.sequencer.pio-slave-port          904                       # Packet count per connected master and slave (bytes)
system.iobus.pkt_count_system.ruby.l1_cntrl3.sequencer.mem-master-port::total          938                       # Packet count per connected master and slave (bytes)
system.iobus.pkt_count::total                    3840                       # Packet count per connected master and slave (bytes)
system.iobus.pkt_size_system.pc.south_bridge.io_apic.int_master::system.ruby.l1_cntrl0.sequencer.pio-slave-port            4                       # Cumulative packet size per connected master and slave (bytes)
system.iobus.pkt_size_system.pc.south_bridge.io_apic.int_master::system.ruby.l1_cntrl1.sequencer.pio-slave-port            8                       # Cumulative packet size per connected master and slave (bytes)
system.iobus.pkt_size_system.pc.south_bridge.io_apic.int_master::system.ruby.l1_cntrl2.sequencer.pio-slave-port            4                       # Cumulative packet size per connected master and slave (bytes)
system.iobus.pkt_size_system.pc.south_bridge.io_apic.int_master::system.ruby.l1_cntrl3.sequencer.pio-slave-port            4                       # Cumulative packet size per connected master and slave (bytes)
system.iobus.pkt_size_system.pc.south_bridge.io_apic.int_master::total           20                       # Cumulative packet size per connected master and slave (bytes)
system.iobus.pkt_size_system.ruby.l1_cntrl0.sequencer.mem-master-port::system.pc.south_bridge.io_apic.pio           16                       # Cumulative packet size per connected master and slave (bytes)
system.iobus.pkt_size_system.ruby.l1_cntrl0.sequencer.mem-master-port::system.ruby.l1_cntrl0.sequencer.pio-slave-port         1792                       # Cumulative packet size per connected master and slave (bytes)
system.iobus.pkt_size_system.ruby.l1_cntrl0.sequencer.mem-master-port::system.ruby.l1_cntrl1.sequencer.pio-slave-port            4                       # Cumulative packet size per connected master and slave (bytes)
system.iobus.pkt_size_system.ruby.l1_cntrl0.sequencer.mem-master-port::total         1812                       # Cumulative packet size per connected master and slave (bytes)
system.iobus.pkt_size_system.ruby.l1_cntrl1.sequencer.mem-master-port::system.pc.south_bridge.io_apic.pio           28                       # Cumulative packet size per connected master and slave (bytes)
system.iobus.pkt_size_system.ruby.l1_cntrl1.sequencer.mem-master-port::system.pc.com_1.pio           81                       # Cumulative packet size per connected master and slave (bytes)
system.iobus.pkt_size_system.ruby.l1_cntrl1.sequencer.mem-master-port::system.ruby.l1_cntrl0.sequencer.pio-slave-port            4                       # Cumulative packet size per connected master and slave (bytes)
system.iobus.pkt_size_system.ruby.l1_cntrl1.sequencer.mem-master-port::system.ruby.l1_cntrl1.sequencer.pio-slave-port         1804                       # Cumulative packet size per connected master and slave (bytes)
system.iobus.pkt_size_system.ruby.l1_cntrl1.sequencer.mem-master-port::system.ruby.l1_cntrl2.sequencer.pio-slave-port            4                       # Cumulative packet size per connected master and slave (bytes)
system.iobus.pkt_size_system.ruby.l1_cntrl1.sequencer.mem-master-port::total         1921                       # Cumulative packet size per connected master and slave (bytes)
system.iobus.pkt_size_system.ruby.l1_cntrl2.sequencer.mem-master-port::system.pc.south_bridge.io_apic.pio           16                       # Cumulative packet size per connected master and slave (bytes)
system.iobus.pkt_size_system.ruby.l1_cntrl2.sequencer.mem-master-port::system.ruby.l1_cntrl2.sequencer.pio-slave-port         1788                       # Cumulative packet size per connected master and slave (bytes)
system.iobus.pkt_size_system.ruby.l1_cntrl2.sequencer.mem-master-port::system.ruby.l1_cntrl3.sequencer.pio-slave-port            4                       # Cumulative packet size per connected master and slave (bytes)
system.iobus.pkt_size_system.ruby.l1_cntrl2.sequencer.mem-master-port::total         1808                       # Cumulative packet size per connected master and slave (bytes)
system.iobus.pkt_size_system.ruby.l1_cntrl3.sequencer.mem-master-port::system.pc.south_bridge.io_apic.pio           12                       # Cumulative packet size per connected master and slave (bytes)
system.iobus.pkt_size_system.ruby.l1_cntrl3.sequencer.mem-master-port::system.pc.com_1.pio           11                       # Cumulative packet size per connected master and slave (bytes)
system.iobus.pkt_size_system.ruby.l1_cntrl3.sequencer.mem-master-port::system.ruby.l1_cntrl0.sequencer.pio-slave-port            4                       # Cumulative packet size per connected master and slave (bytes)
system.iobus.pkt_size_system.ruby.l1_cntrl3.sequencer.mem-master-port::system.ruby.l1_cntrl1.sequencer.pio-slave-port            4                       # Cumulative packet size per connected master and slave (bytes)
system.iobus.pkt_size_system.ruby.l1_cntrl3.sequencer.mem-master-port::system.ruby.l1_cntrl2.sequencer.pio-slave-port            4                       # Cumulative packet size per connected master and slave (bytes)
system.iobus.pkt_size_system.ruby.l1_cntrl3.sequencer.mem-master-port::system.ruby.l1_cntrl3.sequencer.pio-slave-port         1808                       # Cumulative packet size per connected master and slave (bytes)
system.iobus.pkt_size_system.ruby.l1_cntrl3.sequencer.mem-master-port::total         1843                       # Cumulative packet size per connected master and slave (bytes)
system.iobus.pkt_size::total                     7404                       # Cumulative packet size per connected master and slave (bytes)
system.iobus.reqLayer8.occupancy                31996                       # Layer occupancy (ticks)
system.iobus.reqLayer8.utilization                0.0                       # Layer utilization (%)
system.iobus.reqLayer12.occupancy              118500                       # Layer occupancy (ticks)
system.iobus.reqLayer12.utilization               0.0                       # Layer utilization (%)
system.iobus.reqLayer17.occupancy             1098499                       # Layer occupancy (ticks)
system.iobus.reqLayer17.utilization               0.0                       # Layer utilization (%)
system.iobus.reqLayer18.occupancy             1137767                       # Layer occupancy (ticks)
system.iobus.reqLayer18.utilization               0.0                       # Layer utilization (%)
system.iobus.reqLayer19.occupancy             1112000                       # Layer occupancy (ticks)
system.iobus.reqLayer19.utilization               0.0                       # Layer utilization (%)
system.iobus.reqLayer20.occupancy             1121998                       # Layer occupancy (ticks)
system.iobus.reqLayer20.utilization               0.0                       # Layer utilization (%)
system.iobus.respLayer0.occupancy                7000                       # Layer occupancy (ticks)
system.iobus.respLayer0.utilization               0.0                       # Layer utilization (%)
system.iobus.respLayer2.occupancy              680000                       # Layer occupancy (ticks)
system.iobus.respLayer2.utilization               0.0                       # Layer utilization (%)
system.iobus.respLayer4.occupancy              831000                       # Layer occupancy (ticks)
system.iobus.respLayer4.utilization               0.0                       # Layer utilization (%)
system.iobus.respLayer6.occupancy              678500                       # Layer occupancy (ticks)
system.iobus.respLayer6.utilization               0.0                       # Layer utilization (%)
system.iobus.respLayer8.occupancy              707000                       # Layer occupancy (ticks)
system.iobus.respLayer8.utilization               0.0                       # Layer utilization (%)
system.pc.south_bridge.ide.disks.dma_read_full_pages            0                       # Number of full page size DMA reads (not PRD).
system.pc.south_bridge.ide.disks.dma_read_bytes            0                       # Number of bytes transfered via DMA reads (not PRD).
system.pc.south_bridge.ide.disks.dma_read_txs            0                       # Number of DMA read transactions (not PRD).
system.pc.south_bridge.ide.disks.dma_write_full_pages            0                       # Number of full page size DMA writes.
system.pc.south_bridge.ide.disks.dma_write_bytes            0                       # Number of bytes transfered via DMA writes.
system.pc.south_bridge.ide.disks.dma_write_txs            0                       # Number of DMA write transactions.
system.ruby.clk_domain.clock                      500                       # Clock period in ticks
system.ruby.outstanding_req_hist_seqr::bucket_size            1                      
system.ruby.outstanding_req_hist_seqr::max_bucket            9                      
system.ruby.outstanding_req_hist_seqr::samples   1225756003                      
system.ruby.outstanding_req_hist_seqr::mean     1.000000                      
system.ruby.outstanding_req_hist_seqr::gmean     1.000000                      
system.ruby.outstanding_req_hist_seqr::stdev     0.000431                      
system.ruby.outstanding_req_hist_seqr    |           0      0.00%      0.00% |  1225755775    100.00%    100.00% |         228      0.00%    100.00% |           0      0.00%    100.00% |           0      0.00%    100.00% |           0      0.00%    100.00% |           0      0.00%    100.00% |           0      0.00%    100.00% |           0      0.00%    100.00% |           0      0.00%    100.00%
system.ruby.outstanding_req_hist_seqr::total   1225756003                      
system.ruby.latency_hist_seqr::bucket_size          256                      
system.ruby.latency_hist_seqr::max_bucket         2559                      
system.ruby.latency_hist_seqr::samples     1225756003                      
system.ruby.latency_hist_seqr::mean          1.892016                      
system.ruby.latency_hist_seqr::gmean         1.065613                      
system.ruby.latency_hist_seqr::stdev        10.903773                      
system.ruby.latency_hist_seqr            |  1225569439     99.98%     99.98% |      109285      0.01%     99.99% |       72410      0.01%    100.00% |        3387      0.00%    100.00% |        1037      0.00%    100.00% |         323      0.00%    100.00% |          87      0.00%    100.00% |          30      0.00%    100.00% |           5      0.00%    100.00% |           0      0.00%    100.00%
system.ruby.latency_hist_seqr::total       1225756003                      
system.ruby.hit_latency_hist_seqr::bucket_size            1                      
system.ruby.hit_latency_hist_seqr::max_bucket            9                      
system.ruby.hit_latency_hist_seqr::samples   1202654026                      
system.ruby.hit_latency_hist_seqr::mean             1                      
system.ruby.hit_latency_hist_seqr::gmean            1                      
system.ruby.hit_latency_hist_seqr        |           0      0.00%      0.00% |  1202654026    100.00%    100.00% |           0      0.00%    100.00% |           0      0.00%    100.00% |           0      0.00%    100.00% |           0      0.00%    100.00% |           0      0.00%    100.00% |           0      0.00%    100.00% |           0      0.00%    100.00% |           0      0.00%    100.00%
system.ruby.hit_latency_hist_seqr::total   1202654026                      
system.ruby.miss_latency_hist_seqr::bucket_size          256                      
system.ruby.miss_latency_hist_seqr::max_bucket         2559                      
system.ruby.miss_latency_hist_seqr::samples     23101977                      
system.ruby.miss_latency_hist_seqr::mean    48.329011                      
system.ruby.miss_latency_hist_seqr::gmean    29.133432                      
system.ruby.miss_latency_hist_seqr::stdev    64.112613                      
system.ruby.miss_latency_hist_seqr       |    22915413     99.19%     99.19% |      109285      0.47%     99.67% |       72410      0.31%     99.98% |        3387      0.01%     99.99% |        1037      0.00%    100.00% |         323      0.00%    100.00% |          87      0.00%    100.00% |          30      0.00%    100.00% |           5      0.00%    100.00% |           0      0.00%    100.00%
system.ruby.miss_latency_hist_seqr::total     23101977                      
system.ruby.l1_cntrl0.L1Dcache.demand_hits       732879                       # Number of cache demand hits
system.ruby.l1_cntrl0.L1Dcache.demand_misses        15452                       # Number of cache demand misses
[...]
system.ruby.L1Cache_Controller.O.L1_Replacement::total          544                      
system.ruby.L1Cache_Controller.O.Fwd_GETX |        2158     26.89%     26.89% |         117      1.46%     28.35% |        2514     31.32%     59.67% |        3237     40.33%    100.00%
system.ruby.L1Cache_Controller.O.Fwd_GETX::total         8026                      
system.ruby.L1Cache_Controller.O.Fwd_GETS |         542      7.14%      7.14% |         232      3.06%     10.19% |        2248     29.61%     39.80% |        4571     60.20%    100.00%
system.ruby.L1Cache_Controller.O.Fwd_GETS::total         7593                      
system.ruby.L1Cache_Controller.M.Load    |       30304      0.32%      0.32% |     9336551     97.10%     97.42% |       33498      0.35%     97.77% |      214792      2.23%    100.00%
system.ruby.L1Cache_Controller.M.Load::total      9615145                      
system.ruby.L1Cache_Controller.M.Store   |        1500      0.05%      0.05% |     2783522     97.70%     97.75% |        1635      0.06%     97.81% |       62359      2.19%    100.00%
system.ruby.L1Cache_Controller.M.Store::total      2849016                      
system.ruby.L1Cache_Controller.M.L1_Replacement |        1965      0.07%      0.07% |     2872471     98.81%     98.87% |        3972      0.14%     99.01% |       28766      0.99%    100.00%
system.ruby.L1Cache_Controller.M.L1_Replacement::total      2907174                      
system.ruby.L1Cache_Controller.M.Fwd_GETX |         431     24.86%     24.86% |         116      6.69%     31.55% |         948     54.67%     86.22% |         239     13.78%    100.00%
system.ruby.L1Cache_Controller.M.Fwd_GETX::total         1734                      
system.ruby.L1Cache_Controller.M.Fwd_GETS |        2362     27.04%     27.04% |         251      2.87%     29.91% |        2705     30.96%     60.87% |        3418     39.13%    100.00%
system.ruby.L1Cache_Controller.M.Fwd_GETS::total         8736                      
system.ruby.L1Cache_Controller.M_W.Load  |        3938      2.78%      2.78% |       25532     18.02%     20.80% |        6852      4.84%     25.64% |      105354     74.36%    100.00%
system.ruby.L1Cache_Controller.M_W.Load::total       141676                      
system.ruby.L1Cache_Controller.M_W.Store |         501      0.05%      0.05% |      936476     98.91%     98.96% |        1337      0.14%     99.10% |        8481      0.90%    100.00%
system.ruby.L1Cache_Controller.M_W.Store::total       946795                      
system.ruby.L1Cache_Controller.M_W.L1_Replacement |           0      0.00%      0.00% |        1085    100.00%    100.00% |           0      0.00%    100.00% |           0      0.00%    100.00%
system.ruby.L1Cache_Controller.M_W.L1_Replacement::total         1085                      
system.ruby.L1Cache_Controller.M_W.Fwd_GETX |           0      0.00%      0.00% |          58     95.08%     95.08% |           0      0.00%     95.08% |           3      4.92%    100.00%
system.ruby.L1Cache_Controller.M_W.Fwd_GETX::total           61                      
system.ruby.L1Cache_Controller.M_W.Fwd_GETS |          10      2.74%      2.74% |         204     55.89%     58.63% |         129     35.34%     93.97% |          22      6.03%    100.00%
system.ruby.L1Cache_Controller.M_W.Fwd_GETS::total          365                      
system.ruby.L1Cache_Controller.M_W.Use_Timeout |        6325      0.11%      0.11% |     5656354     98.09%     98.20% |        9200      0.16%     98.36% |       94791      1.64%    100.00%
system.ruby.L1Cache_Controller.M_W.Use_Timeout::total      5766670                      
system.ruby.L1Cache_Controller.MM.Load   |      416919      2.54%      2.54% |    13080328     79.84%     82.38% |      580717      3.54%     85.92% |     2306101     14.08%    100.00%
system.ruby.L1Cache_Controller.MM.Load::total     16384065                      
system.ruby.L1Cache_Controller.MM.Store  |      424301      0.69%      0.69% |    58019739     94.71%     95.41% |      600548      0.98%     96.39% |     2213449      3.61%    100.00%
system.ruby.L1Cache_Controller.MM.Store::total     61258037                      
system.ruby.L1Cache_Controller.MM.L1_Replacement |        8936      0.07%      0.07% |    13513590     98.86%     98.93% |       14994      0.11%     99.04% |      131330      0.96%    100.00%
system.ruby.L1Cache_Controller.MM.L1_Replacement::total     13668850                      
system.ruby.L1Cache_Controller.MM.Fwd_GETX |         561     21.76%     21.76% |         552     21.41%     43.17% |         610     23.66%     66.83% |         855     33.17%    100.00%
system.ruby.L1Cache_Controller.MM.Fwd_GETX::total         2578                      
system.ruby.L1Cache_Controller.MM.Fwd_GETS |        3914     39.57%     39.57% |        1729     17.48%     57.05% |        1983     20.05%     77.09% |        2266     22.91%    100.00%
system.ruby.L1Cache_Controller.MM.Fwd_GETS::total         9892                      
system.ruby.L1Cache_Controller.MM.Fwd_DMA |           0      0.00%      0.00% |           2    100.00%    100.00% |           0      0.00%    100.00% |           0      0.00%    100.00%
system.ruby.L1Cache_Controller.MM.Fwd_DMA::total            2                      
system.ruby.L1Cache_Controller.MM_W.Load |        1387      3.50%      3.50% |       27731     70.00%     73.50% |        1355      3.42%     76.92% |        9145     23.08%    100.00%
system.ruby.L1Cache_Controller.MM_W.Load::total        39618                      
system.ruby.L1Cache_Controller.MM_W.Store |       40136      0.46%      0.46% |     8528794     97.63%     98.08% |       68424      0.78%     98.87% |       98925      1.13%    100.00%
system.ruby.L1Cache_Controller.MM_W.Store::total      8736279                      
system.ruby.L1Cache_Controller.MM_W.L1_Replacement |           0      0.00%      0.00% |         716     99.58%     99.58% |           0      0.00%     99.58% |           3      0.42%    100.00%
system.ruby.L1Cache_Controller.MM_W.L1_Replacement::total          719                      
system.ruby.L1Cache_Controller.MM_W.Fwd_GETX |           3     17.65%     17.65% |          10     58.82%     76.47% |           1      5.88%     82.35% |           3     17.65%    100.00%
system.ruby.L1Cache_Controller.MM_W.Fwd_GETX::total           17                      
system.ruby.L1Cache_Controller.MM_W.Fwd_GETS |         206     20.02%     20.02% |         394     38.29%     58.31% |         387     37.61%     95.92% |          42      4.08%    100.00%
system.ruby.L1Cache_Controller.MM_W.Fwd_GETS::total         1029                      
system.ruby.L1Cache_Controller.MM_W.Use_Timeout |       11947      0.11%      0.11% |    10732409     99.08%     99.19% |       15922      0.15%     99.33% |       72051      0.67%    100.00%
system.ruby.L1Cache_Controller.MM_W.Use_Timeout::total     10832329                      
system.ruby.L1Cache_Controller.IM.Ack    |        3476     35.36%     35.36% |        2232     22.71%     58.07% |        1986     20.20%     78.27% |        2136     21.73%    100.00%
system.ruby.L1Cache_Controller.IM.Ack::total         9830                      
system.ruby.L1Cache_Controller.IM.Exclusive_Data |        8304      0.08%      0.08% |     9765843     99.21%     99.30% |       12262      0.12%     99.42% |       57055      0.58%    100.00%
system.ruby.L1Cache_Controller.IM.Exclusive_Data::total      9843464                      
system.ruby.L1Cache_Controller.SM.Ack    |        3545     47.83%     47.83% |        1548     20.89%     68.71% |        1296     17.49%     86.20% |        1023     13.80%    100.00%
system.ruby.L1Cache_Controller.SM.Ack::total         7412                      
system.ruby.L1Cache_Controller.SM.Exclusive_Data |        3133      7.49%      7.49% |       30017     71.71%     79.20% |        2214      5.29%     84.49% |        6493     15.51%    100.00%
system.ruby.L1Cache_Controller.SM.Exclusive_Data::total        41857                      
system.ruby.L1Cache_Controller.OM.Own_GETX |           9      4.23%      4.23% |          73     34.27%     38.50% |         109     51.17%     89.67% |          22     10.33%    100.00%
system.ruby.L1Cache_Controller.OM.Own_GETX::total          213                      
system.ruby.L1Cache_Controller.OM.Ack    |         295     10.30%     10.30% |         899     31.38%     41.68% |         777     27.12%     68.80% |         894     31.20%    100.00%
system.ruby.L1Cache_Controller.OM.Ack::total         2865                      
system.ruby.L1Cache_Controller.OM.All_acks |       11446      0.12%      0.12% |     9795933     99.09%     99.21% |       14585      0.15%     99.36% |       63570      0.64%    100.00%
system.ruby.L1Cache_Controller.OM.All_acks::total      9885534                      
system.ruby.L1Cache_Controller.IS.Data   |       44211      0.65%      0.65% |     6627340     97.82%     98.47% |       43193      0.64%     99.11% |       60516      0.89%    100.00%
system.ruby.L1Cache_Controller.IS.Data::total      6775260                      
system.ruby.L1Cache_Controller.IS.Exclusive_Data |        6826      0.10%      0.10% |     6592830     98.20%     98.30% |       10537      0.16%     98.46% |      103272      1.54%    100.00%
system.ruby.L1Cache_Controller.IS.Exclusive_Data::total      6713465                      
system.ruby.L1Cache_Controller.SI.Load   |           0      0.00%      0.00% |          40     72.73%     72.73% |          10     18.18%     90.91% |           5      9.09%    100.00%
system.ruby.L1Cache_Controller.SI.Load::total           55                      
system.ruby.L1Cache_Controller.SI.Ifetch |           1      9.09%      9.09% |           8     72.73%     81.82% |           0      0.00%     81.82% |           2     18.18%    100.00%
system.ruby.L1Cache_Controller.SI.Ifetch::total           11                      
system.ruby.L1Cache_Controller.SI.Inv    |           0      0.00%      0.00% |           0      0.00%      0.00% |           0      0.00%      0.00% |           2    100.00%    100.00%
system.ruby.L1Cache_Controller.SI.Inv::total            2                      
system.ruby.L1Cache_Controller.SI.Writeback_Ack |       34704      0.98%      0.98% |     3422664     96.98%     97.97% |       31229      0.88%     98.85% |       40564      1.15%    100.00%
system.ruby.L1Cache_Controller.SI.Writeback_Ack::total      3529161                      
system.ruby.L1Cache_Controller.SI.Writeback_Ack_Data |        5277      0.17%      0.17% |     3173632     99.29%     99.46% |        6246      0.20%     99.65% |       11132      0.35%    100.00%
system.ruby.L1Cache_Controller.SI.Writeback_Ack_Data::total      3196287                      
system.ruby.L1Cache_Controller.OI.Writeback_Ack_Data |         169     31.07%     31.07% |          92     16.91%     47.98% |         124     22.79%     70.77% |         159     29.23%    100.00%
system.ruby.L1Cache_Controller.OI.Writeback_Ack_Data::total          544                      
system.ruby.L1Cache_Controller.MI.Load   |           0      0.00%      0.00% |          24     72.73%     72.73% |           0      0.00%     72.73% |           9     27.27%    100.00%
system.ruby.L1Cache_Controller.MI.Load::total           33                      
system.ruby.L1Cache_Controller.MI.Store  |           0      0.00%      0.00% |         865     99.77%     99.77% |           2      0.23%    100.00% |           0      0.00%    100.00%
system.ruby.L1Cache_Controller.MI.Store::total          867                      
system.ruby.L1Cache_Controller.MI.Writeback_Ack_Data |       10901      0.07%      0.07% |    16386061     98.85%     98.92% |       18966      0.11%     99.03% |      160096      0.97%    100.00%
system.ruby.L1Cache_Controller.MI.Writeback_Ack_Data::total     16576024                      
system.ruby.L1Cache_Controller.II.Writeback_Nack |           0      0.00%      0.00% |           0      0.00%      0.00% |           0      0.00%      0.00% |           2    100.00%    100.00%
system.ruby.L1Cache_Controller.II.Writeback_Nack::total            2                      
system.ruby.L2Cache_Controller.L1_GETS       13489439      0.00%      0.00%
system.ruby.L2Cache_Controller.L1_GETX        9885541      0.00%      0.00%
system.ruby.L2Cache_Controller.L1_PUTO            544      0.00%      0.00%
system.ruby.L2Cache_Controller.L1_PUTX       16576024      0.00%      0.00%
system.ruby.L2Cache_Controller.L1_PUTS_only      6583018      0.00%      0.00%
system.ruby.L2Cache_Controller.L1_PUTS         142440      0.00%      0.00%
system.ruby.L2Cache_Controller.Fwd_DMA              2      0.00%      0.00%
system.ruby.L2Cache_Controller.All_Acks       2719251      0.00%      0.00%
system.ruby.L2Cache_Controller.Data           5940043      0.00%      0.00%
system.ruby.L2Cache_Controller.L1_WBCLEANDATA      3196287      0.00%      0.00%
system.ruby.L2Cache_Controller.L1_WBDIRTYDATA     16576568      0.00%      0.00%
system.ruby.L2Cache_Controller.Writeback_Ack      2704200      0.00%      0.00%
system.ruby.L2Cache_Controller.Unblock       10304421      0.00%      0.00%
system.ruby.L2Cache_Controller.Exclusive_Unblock     16598999      0.00%      0.00%
system.ruby.L2Cache_Controller.DmaAck               2      0.00%      0.00%
system.ruby.L2Cache_Controller.L2_Replacement      5890159      0.00%      0.00%
system.ruby.L2Cache_Controller.NP.L1_GETS      3220792      0.00%      0.00%
system.ruby.L2Cache_Controller.NP.L1_GETX      2679397      0.00%      0.00%
system.ruby.L2Cache_Controller.ILS.L1_GETS         6667      0.00%      0.00%
system.ruby.L2Cache_Controller.ILS.L1_GETX        33331      0.00%      0.00%
system.ruby.L2Cache_Controller.ILS.L1_PUTS_only      3187943      0.00%      0.00%
system.ruby.L2Cache_Controller.ILS.L1_PUTS         8344      0.00%      0.00%
system.ruby.L2Cache_Controller.ILX.L1_GETS        18628      0.00%      0.00%
system.ruby.L2Cache_Controller.ILX.L1_GETX         4312      0.00%      0.00%
system.ruby.L2Cache_Controller.ILX.L1_PUTX     16576024      0.00%      0.00%
system.ruby.L2Cache_Controller.ILX.L1_PUTS            2      0.00%      0.00%
system.ruby.L2Cache_Controller.ILX.Fwd_DMA            2      0.00%      0.00%
system.ruby.L2Cache_Controller.ILOX.L1_GETS         3371      0.00%      0.00%
system.ruby.L2Cache_Controller.ILOX.L1_GETX          211      0.00%      0.00%
system.ruby.L2Cache_Controller.ILOX.L1_PUTO          283      0.00%      0.00%
system.ruby.L2Cache_Controller.ILOSX.L1_GETS         4222      0.00%      0.00%
system.ruby.L2Cache_Controller.ILOSX.L1_GETX         8028      0.00%      0.00%
system.ruby.L2Cache_Controller.ILOSX.L1_PUTO          261      0.00%      0.00%
system.ruby.L2Cache_Controller.ILOSX.L1_PUTS_only         3889      0.00%      0.00%
system.ruby.L2Cache_Controller.ILOSX.L1_PUTS         1534      0.00%      0.00%
system.ruby.L2Cache_Controller.S.L1_GETS      3396350      0.00%      0.00%
system.ruby.L2Cache_Controller.S.L1_GETX         2189      0.00%      0.00%
system.ruby.L2Cache_Controller.S.L2_Replacement      3177083      0.00%      0.00%
system.ruby.L2Cache_Controller.OLSX.L1_GETS         1866      0.00%      0.00%
system.ruby.L2Cache_Controller.OLSX.L1_GETX          132      0.00%      0.00%
system.ruby.L2Cache_Controller.OLSX.L1_PUTS_only          100      0.00%      0.00%
system.ruby.L2Cache_Controller.OLSX.L1_PUTS         1793      0.00%      0.00%
system.ruby.L2Cache_Controller.OLSX.L2_Replacement           31      0.00%      0.00%
system.ruby.L2Cache_Controller.SLS.L1_GETS       133256      0.00%      0.00%
system.ruby.L2Cache_Controller.SLS.L1_GETX         4334      0.00%      0.00%
system.ruby.L2Cache_Controller.SLS.L1_PUTS_only      3391084      0.00%      0.00%
system.ruby.L2Cache_Controller.SLS.L1_PUTS       130761      0.00%      0.00%
system.ruby.L2Cache_Controller.SLS.L2_Replacement         8876      0.00%      0.00%
system.ruby.L2Cache_Controller.M.L1_GETS      6703573      0.00%      0.00%
system.ruby.L2Cache_Controller.M.L1_GETX      7153600      0.00%      0.00%
system.ruby.L2Cache_Controller.M.L2_Replacement      2704169      0.00%      0.00%
system.ruby.L2Cache_Controller.ILOXW.L1_WBDIRTYDATA          283      0.00%      0.00%
system.ruby.L2Cache_Controller.ILOXW.Unblock         3889      0.00%      0.00%
system.ruby.L2Cache_Controller.ILOSXW.L1_WBDIRTYDATA          261      0.00%      0.00%
system.ruby.L2Cache_Controller.ILOSXW.Unblock         1534      0.00%      0.00%
system.ruby.L2Cache_Controller.SLSW.L1_GETS            4      0.00%      0.00%
system.ruby.L2Cache_Controller.SLSW.Unblock       130761      0.00%      0.00%
system.ruby.L2Cache_Controller.ILSW.L1_WBCLEANDATA         8344      0.00%      0.00%
system.ruby.L2Cache_Controller.IW.L1_WBCLEANDATA      3187943      0.00%      0.00%
system.ruby.L2Cache_Controller.SW.Unblock      3391084      0.00%      0.00%
system.ruby.L2Cache_Controller.OXW.Unblock          100      0.00%      0.00%
system.ruby.L2Cache_Controller.OLSXW.Unblock         1793      0.00%      0.00%
system.ruby.L2Cache_Controller.ILXW.L1_WBDIRTYDATA     16576024      0.00%      0.00%
system.ruby.L2Cache_Controller.IFLS.L1_GETS            3      0.00%      0.00%
system.ruby.L2Cache_Controller.IFLS.Unblock         6667      0.00%      0.00%
system.ruby.L2Cache_Controller.IFLOX.Unblock         3371      0.00%      0.00%
system.ruby.L2Cache_Controller.IFLOX.Exclusive_Unblock          132      0.00%      0.00%
system.ruby.L2Cache_Controller.IFLOXX.L1_GETS           95      0.00%      0.00%
system.ruby.L2Cache_Controller.IFLOXX.L1_GETX            5      0.00%      0.00%
system.ruby.L2Cache_Controller.IFLOXX.Unblock         8736      0.00%      0.00%
system.ruby.L2Cache_Controller.IFLOXX.Exclusive_Unblock        14415      0.00%      0.00%
system.ruby.L2Cache_Controller.IFLOSX.Unblock         4222      0.00%      0.00%
system.ruby.L2Cache_Controller.IFLXO.L1_GETS           95      0.00%      0.00%
system.ruby.L2Cache_Controller.IFLXO.L1_PUTS_only            2      0.00%      0.00%
system.ruby.L2Cache_Controller.IFLXO.Exclusive_Unblock         8028      0.00%      0.00%
system.ruby.L2Cache_Controller.IGS.L1_GETS          510      0.00%      0.00%
system.ruby.L2Cache_Controller.IGS.Data       3220792      0.00%      0.00%
system.ruby.L2Cache_Controller.IGS.Unblock      3220792      0.00%      0.00%
system.ruby.L2Cache_Controller.IGM.Data       2681586      0.00%      0.00%
system.ruby.L2Cache_Controller.IGMLS.L1_PUTS            1      0.00%      0.00%
system.ruby.L2Cache_Controller.IGMLS.Data        37665      0.00%      0.00%
system.ruby.L2Cache_Controller.IGMO.L1_PUTS            3      0.00%      0.00%
system.ruby.L2Cache_Controller.IGMO.All_Acks      2719251      0.00%      0.00%
system.ruby.L2Cache_Controller.IGMO.Exclusive_Unblock      2719251      0.00%      0.00%
system.ruby.L2Cache_Controller.MM.Exclusive_Unblock      7153600      0.00%      0.00%
system.ruby.L2Cache_Controller.SS.L1_GETS            3      0.00%      0.00%
system.ruby.L2Cache_Controller.SS.Unblock      3396350      0.00%      0.00%
system.ruby.L2Cache_Controller.OO.L1_GETS            2      0.00%      0.00%
system.ruby.L2Cache_Controller.OO.Exclusive_Unblock      6703573      0.00%      0.00%
system.ruby.L2Cache_Controller.OLSXS.Unblock         1866      0.00%      0.00%
system.ruby.L2Cache_Controller.SLSS.L1_GETS            2      0.00%      0.00%
system.ruby.L2Cache_Controller.SLSS.L1_PUTS            2      0.00%      0.00%
system.ruby.L2Cache_Controller.SLSS.Unblock       133256      0.00%      0.00%
system.ruby.L2Cache_Controller.MI.L1_GETX            2      0.00%      0.00%
system.ruby.L2Cache_Controller.MI.Writeback_Ack      2704169      0.00%      0.00%
system.ruby.L2Cache_Controller.OLSI.Writeback_Ack           31      0.00%      0.00%
system.ruby.L2Cache_Controller.ILXD.DmaAck            2      0.00%      0.00%

---------- End Simulation Statistics   ----------
