
---------- Begin Simulation Statistics ----------
sim_seconds                                  0.509523                       # Number of seconds simulated
sim_ticks                                509522546000                       # Number of ticks simulated
final_tick                               52825725085001                       # Number of ticks from beginning of simulation (restored from checkpoints and never reset)
sim_freq                                 1000000000000                       # Frequency of simulated ticks
host_inst_rate                                 137495                       # Simulator instruction rate (inst/s)
host_op_rate                                   248177                       # Simulator op (including micro ops) rate (op/s)
host_tick_rate                              260368056                       # Simulator tick rate (ticks/s)
host_mem_usage                                1835848                       # Number of bytes of host memory used
host_seconds                                  1956.93                       # Real time elapsed on the host
sim_insts                                   269068441                       # Number of instructions simulated
sim_ops                                     485665163                       # Number of ops (including micro ops) simulated
system.voltage_domain.voltage                       1                       # Voltage in Volts
system.clk_domain.clock                          1000                       # Clock period in ticks
system.mem_ctrls.bytes_read::ruby.dir_cntrl0       473216                       # Number of bytes read from this memory
system.mem_ctrls.bytes_read::total             473216                       # Number of bytes read from this memory
system.mem_ctrls.bytes_written::ruby.dir_cntrl0       210944                       # Number of bytes written to this memory
system.mem_ctrls.bytes_written::total          210944                       # Number of bytes written to this memory
system.mem_ctrls.num_reads::ruby.dir_cntrl0         7394                       # Number of read requests responded to by this memory
system.mem_ctrls.num_reads::total                7394                       # Number of read requests responded to by this memory
system.mem_ctrls.num_writes::ruby.dir_cntrl0         3296                       # Number of write requests responded to by this memory
system.mem_ctrls.num_writes::total               3296                       # Number of write requests responded to by this memory
system.mem_ctrls.bw_read::ruby.dir_cntrl0       928744                       # Total read bandwidth from this memory (bytes/s)
system.mem_ctrls.bw_read::total                928744                       # Total read bandwidth from this memory (bytes/s)
system.mem_ctrls.bw_write::ruby.dir_cntrl0       414003                       # Write bandwidth from this memory (bytes/s)
system.mem_ctrls.bw_write::total               414003                       # Write bandwidth from this memory (bytes/s)
system.mem_ctrls.bw_total::ruby.dir_cntrl0      1342747                       # Total bandwidth to/from this memory (bytes/s)
system.mem_ctrls.bw_total::total              1342747                       # Total bandwidth to/from this memory (bytes/s)
system.mem_ctrls.readReqs                        7394                       # Number of read requests accepted
system.mem_ctrls.writeReqs                       3296                       # Number of write requests accepted
system.mem_ctrls.readBursts                      7394                       # Number of DRAM read bursts, including those serviced by the write queue
system.mem_ctrls.writeBursts                     3296                       # Number of DRAM write bursts, including those merged in the write queue
system.mem_ctrls.bytesReadDRAM                 471616                       # Total number of bytes read from DRAM
system.mem_ctrls.bytesReadWrQ                    1600                       # Total number of bytes read from write queue
system.mem_ctrls.bytesWritten                  209856                       # Total number of bytes written to DRAM
system.mem_ctrls.bytesReadSys                  473216                       # Total read bytes from the system interface side
system.mem_ctrls.bytesWrittenSys               210944                       # Total written bytes from the system interface side
system.mem_ctrls.servicedByWrQ                     25                       # Number of DRAM read bursts serviced by the write queue
system.mem_ctrls.mergedWrBursts                     0                       # Number of DRAM write bursts merged with an existing one
system.mem_ctrls.neitherReadNorWriteReqs            0                       # Number of requests that are neither read nor write
system.mem_ctrls.perBankRdBursts::0               510                       # Per bank write bursts
system.mem_ctrls.perBankRdBursts::1               445                       # Per bank write bursts
system.mem_ctrls.perBankRdBursts::2               665                       # Per bank write bursts
system.mem_ctrls.perBankRdBursts::3               354                       # Per bank write bursts
system.mem_ctrls.perBankRdBursts::4               555                       # Per bank write bursts
system.mem_ctrls.perBankRdBursts::5               331                       # Per bank write bursts
system.mem_ctrls.perBankRdBursts::6               409                       # Per bank write bursts
system.mem_ctrls.perBankRdBursts::7               492                       # Per bank write bursts
system.mem_ctrls.perBankRdBursts::8               437                       # Per bank write bursts
system.mem_ctrls.perBankRdBursts::9               536                       # Per bank write bursts
system.mem_ctrls.perBankRdBursts::10              523                       # Per bank write bursts
system.mem_ctrls.perBankRdBursts::11              418                       # Per bank write bursts
system.mem_ctrls.perBankRdBursts::12              356                       # Per bank write bursts
system.mem_ctrls.perBankRdBursts::13              451                       # Per bank write bursts
system.mem_ctrls.perBankRdBursts::14              585                       # Per bank write bursts
system.mem_ctrls.perBankRdBursts::15              302                       # Per bank write bursts
system.mem_ctrls.perBankWrBursts::0               170                       # Per bank write bursts
system.mem_ctrls.perBankWrBursts::1               280                       # Per bank write bursts
system.mem_ctrls.perBankWrBursts::2               336                       # Per bank write bursts
system.mem_ctrls.perBankWrBursts::3               136                       # Per bank write bursts
system.mem_ctrls.perBankWrBursts::4               358                       # Per bank write bursts
system.mem_ctrls.perBankWrBursts::5               327                       # Per bank write bursts
system.mem_ctrls.perBankWrBursts::6               129                       # Per bank write bursts
system.mem_ctrls.perBankWrBursts::7               357                       # Per bank write bursts
system.mem_ctrls.perBankWrBursts::8               231                       # Per bank write bursts
system.mem_ctrls.perBankWrBursts::9               198                       # Per bank write bursts
system.mem_ctrls.perBankWrBursts::10              133                       # Per bank write bursts
system.mem_ctrls.perBankWrBursts::11               72                       # Per bank write bursts
system.mem_ctrls.perBankWrBursts::12               65                       # Per bank write bursts
system.mem_ctrls.perBankWrBursts::13              130                       # Per bank write bursts
system.mem_ctrls.perBankWrBursts::14              209                       # Per bank write bursts
system.mem_ctrls.perBankWrBursts::15              148                       # Per bank write bursts
system.mem_ctrls.numRdRetry                         0                       # Number of times read queue was full causing retry
system.mem_ctrls.numWrRetry                         0                       # Number of times write queue was full causing retry
system.mem_ctrls.totGap                  509522497000                       # Total gap between requests
system.mem_ctrls.readPktSize::0                     0                       # Read request sizes (log2)
system.mem_ctrls.readPktSize::1                     0                       # Read request sizes (log2)
system.mem_ctrls.readPktSize::2                     0                       # Read request sizes (log2)
system.mem_ctrls.readPktSize::3                     0                       # Read request sizes (log2)
system.mem_ctrls.readPktSize::4                     0                       # Read request sizes (log2)
system.mem_ctrls.readPktSize::5                     0                       # Read request sizes (log2)
system.mem_ctrls.readPktSize::6                  7394                       # Read request sizes (log2)
system.mem_ctrls.writePktSize::0                    0                       # Write request sizes (log2)
system.mem_ctrls.writePktSize::1                    0                       # Write request sizes (log2)
system.mem_ctrls.writePktSize::2                    0                       # Write request sizes (log2)
system.mem_ctrls.writePktSize::3                    0                       # Write request sizes (log2)
system.mem_ctrls.writePktSize::4                    0                       # Write request sizes (log2)
system.mem_ctrls.writePktSize::5                    0                       # Write request sizes (log2)
system.mem_ctrls.writePktSize::6                 3296                       # Write request sizes (log2)
system.mem_ctrls.rdQLenPdf::0                    7190                       # What read queue length does an incoming req see
system.mem_ctrls.rdQLenPdf::1                     179                       # What read queue length does an incoming req see
system.mem_ctrls.rdQLenPdf::2                       0                       # What read queue length does an incoming req see
system.mem_ctrls.rdQLenPdf::3                       0                       # What read queue length does an incoming req see
system.mem_ctrls.rdQLenPdf::4                       0                       # What read queue length does an incoming req see
system.mem_ctrls.rdQLenPdf::5                       0                       # What read queue length does an incoming req see
system.mem_ctrls.rdQLenPdf::6                       0                       # What read queue length does an incoming req see
system.mem_ctrls.rdQLenPdf::7                       0                       # What read queue length does an incoming req see
system.mem_ctrls.rdQLenPdf::8                       0                       # What read queue length does an incoming req see
system.mem_ctrls.rdQLenPdf::9                       0                       # What read queue length does an incoming req see
system.mem_ctrls.rdQLenPdf::10                      0                       # What read queue length does an incoming req see
system.mem_ctrls.rdQLenPdf::11                      0                       # What read queue length does an incoming req see
system.mem_ctrls.rdQLenPdf::12                      0                       # What read queue length does an incoming req see
system.mem_ctrls.rdQLenPdf::13                      0                       # What read queue length does an incoming req see
system.mem_ctrls.rdQLenPdf::14                      0                       # What read queue length does an incoming req see
system.mem_ctrls.rdQLenPdf::15                      0                       # What read queue length does an incoming req see
system.mem_ctrls.rdQLenPdf::16                      0                       # What read queue length does an incoming req see
system.mem_ctrls.rdQLenPdf::17                      0                       # What read queue length does an incoming req see
system.mem_ctrls.rdQLenPdf::18                      0                       # What read queue length does an incoming req see
system.mem_ctrls.rdQLenPdf::19                      0                       # What read queue length does an incoming req see
system.mem_ctrls.rdQLenPdf::20                      0                       # What read queue length does an incoming req see
system.mem_ctrls.rdQLenPdf::21                      0                       # What read queue length does an incoming req see
system.mem_ctrls.rdQLenPdf::22                      0                       # What read queue length does an incoming req see
system.mem_ctrls.rdQLenPdf::23                      0                       # What read queue length does an incoming req see
system.mem_ctrls.rdQLenPdf::24                      0                       # What read queue length does an incoming req see
system.mem_ctrls.rdQLenPdf::25                      0                       # What read queue length does an incoming req see
system.mem_ctrls.rdQLenPdf::26                      0                       # What read queue length does an incoming req see
system.mem_ctrls.rdQLenPdf::27                      0                       # What read queue length does an incoming req see
system.mem_ctrls.rdQLenPdf::28                      0                       # What read queue length does an incoming req see
system.mem_ctrls.rdQLenPdf::29                      0                       # What read queue length does an incoming req see
system.mem_ctrls.rdQLenPdf::30                      0                       # What read queue length does an incoming req see
system.mem_ctrls.rdQLenPdf::31                      0                       # What read queue length does an incoming req see
system.mem_ctrls.wrQLenPdf::0                       0                       # What write queue length does an incoming req see
system.mem_ctrls.wrQLenPdf::1                       0                       # What write queue length does an incoming req see
system.mem_ctrls.wrQLenPdf::2                       0                       # What write queue length does an incoming req see
system.mem_ctrls.wrQLenPdf::3                       0                       # What write queue length does an incoming req see
system.mem_ctrls.wrQLenPdf::4                       0                       # What write queue length does an incoming req see
system.mem_ctrls.wrQLenPdf::5                       0                       # What write queue length does an incoming req see
system.mem_ctrls.wrQLenPdf::6                       0                       # What write queue length does an incoming req see
system.mem_ctrls.wrQLenPdf::7                       0                       # What write queue length does an incoming req see
system.mem_ctrls.wrQLenPdf::8                       0                       # What write queue length does an incoming req see
system.mem_ctrls.wrQLenPdf::9                       0                       # What write queue length does an incoming req see
system.mem_ctrls.wrQLenPdf::10                      0                       # What write queue length does an incoming req see
system.mem_ctrls.wrQLenPdf::11                      1                       # What write queue length does an incoming req see
system.mem_ctrls.wrQLenPdf::12                      1                       # What write queue length does an incoming req see
system.mem_ctrls.wrQLenPdf::13                      1                       # What write queue length does an incoming req see
system.mem_ctrls.wrQLenPdf::14                      1                       # What write queue length does an incoming req see
system.mem_ctrls.wrQLenPdf::15                    120                       # What write queue length does an incoming req see
system.mem_ctrls.wrQLenPdf::16                    158                       # What write queue length does an incoming req see
system.mem_ctrls.wrQLenPdf::17                    184                       # What write queue length does an incoming req see
system.mem_ctrls.wrQLenPdf::18                    212                       # What write queue length does an incoming req see
system.mem_ctrls.wrQLenPdf::19                    191                       # What write queue length does an incoming req see
system.mem_ctrls.wrQLenPdf::20                    231                       # What write queue length does an incoming req see
system.mem_ctrls.wrQLenPdf::21                    216                       # What write queue length does an incoming req see
system.mem_ctrls.wrQLenPdf::22                    176                       # What write queue length does an incoming req see
system.mem_ctrls.wrQLenPdf::23                    226                       # What write queue length does an incoming req see
system.mem_ctrls.wrQLenPdf::24                    213                       # What write queue length does an incoming req see
system.mem_ctrls.wrQLenPdf::25                    185                       # What write queue length does an incoming req see
system.mem_ctrls.wrQLenPdf::26                    195                       # What write queue length does an incoming req see
system.mem_ctrls.wrQLenPdf::27                    182                       # What write queue length does an incoming req see
system.mem_ctrls.wrQLenPdf::28                    164                       # What write queue length does an incoming req see
system.mem_ctrls.wrQLenPdf::29                    153                       # What write queue length does an incoming req see
system.mem_ctrls.wrQLenPdf::30                    156                       # What write queue length does an incoming req see
system.mem_ctrls.wrQLenPdf::31                    155                       # What write queue length does an incoming req see
system.mem_ctrls.wrQLenPdf::32                    151                       # What write queue length does an incoming req see
system.mem_ctrls.wrQLenPdf::33                      7                       # What write queue length does an incoming req see
system.mem_ctrls.wrQLenPdf::34                      4                       # What write queue length does an incoming req see
system.mem_ctrls.wrQLenPdf::35                      2                       # What write queue length does an incoming req see
system.mem_ctrls.wrQLenPdf::36                      3                       # What write queue length does an incoming req see
system.mem_ctrls.wrQLenPdf::37                      1                       # What write queue length does an incoming req see
system.mem_ctrls.wrQLenPdf::38                      1                       # What write queue length does an incoming req see
system.mem_ctrls.wrQLenPdf::39                      2                       # What write queue length does an incoming req see
system.mem_ctrls.wrQLenPdf::40                      1                       # What write queue length does an incoming req see
system.mem_ctrls.wrQLenPdf::41                      1                       # What write queue length does an incoming req see
system.mem_ctrls.wrQLenPdf::42                      1                       # What write queue length does an incoming req see
system.mem_ctrls.wrQLenPdf::43                      1                       # What write queue length does an incoming req see
system.mem_ctrls.wrQLenPdf::44                      0                       # What write queue length does an incoming req see
system.mem_ctrls.wrQLenPdf::45                      0                       # What write queue length does an incoming req see
system.mem_ctrls.wrQLenPdf::46                      0                       # What write queue length does an incoming req see
system.mem_ctrls.wrQLenPdf::47                      0                       # What write queue length does an incoming req see
system.mem_ctrls.wrQLenPdf::48                      0                       # What write queue length does an incoming req see
system.mem_ctrls.wrQLenPdf::49                      0                       # What write queue length does an incoming req see
system.mem_ctrls.wrQLenPdf::50                      0                       # What write queue length does an incoming req see
system.mem_ctrls.wrQLenPdf::51                      0                       # What write queue length does an incoming req see
system.mem_ctrls.wrQLenPdf::52                      0                       # What write queue length does an incoming req see
system.mem_ctrls.wrQLenPdf::53                      0                       # What write queue length does an incoming req see
system.mem_ctrls.wrQLenPdf::54                      0                       # What write queue length does an incoming req see
system.mem_ctrls.wrQLenPdf::55                      0                       # What write queue length does an incoming req see
system.mem_ctrls.wrQLenPdf::56                      0                       # What write queue length does an incoming req see
system.mem_ctrls.wrQLenPdf::57                      0                       # What write queue length does an incoming req see
system.mem_ctrls.wrQLenPdf::58                      0                       # What write queue length does an incoming req see
system.mem_ctrls.wrQLenPdf::59                      0                       # What write queue length does an incoming req see
system.mem_ctrls.wrQLenPdf::60                      0                       # What write queue length does an incoming req see
system.mem_ctrls.wrQLenPdf::61                      0                       # What write queue length does an incoming req see
system.mem_ctrls.wrQLenPdf::62                      0                       # What write queue length does an incoming req see
system.mem_ctrls.wrQLenPdf::63                      0                       # What write queue length does an incoming req see
system.mem_ctrls.bytesPerActivate::samples         3413                       # Bytes accessed per row activation
system.mem_ctrls.bytesPerActivate::mean    199.707003                       # Bytes accessed per row activation
system.mem_ctrls.bytesPerActivate::gmean   120.642764                       # Bytes accessed per row activation
system.mem_ctrls.bytesPerActivate::stdev   270.877223                       # Bytes accessed per row activation
system.mem_ctrls.bytesPerActivate::0-127         1767     51.77%     51.77% # Bytes accessed per row activation
system.mem_ctrls.bytesPerActivate::128-255         1036     30.35%     82.13% # Bytes accessed per row activation
system.mem_ctrls.bytesPerActivate::256-383          148      4.34%     86.46% # Bytes accessed per row activation
system.mem_ctrls.bytesPerActivate::384-511           84      2.46%     88.92% # Bytes accessed per row activation
system.mem_ctrls.bytesPerActivate::512-639           49      1.44%     90.36% # Bytes accessed per row activation
system.mem_ctrls.bytesPerActivate::640-767           27      0.79%     91.15% # Bytes accessed per row activation
system.mem_ctrls.bytesPerActivate::768-895           19      0.56%     91.71% # Bytes accessed per row activation
system.mem_ctrls.bytesPerActivate::896-1023           23      0.67%     92.38% # Bytes accessed per row activation
system.mem_ctrls.bytesPerActivate::1024-1151          260      7.62%    100.00% # Bytes accessed per row activation
system.mem_ctrls.bytesPerActivate::total         3413                       # Bytes accessed per row activation
system.mem_ctrls.rdPerTurnAround::samples          151                       # Reads before turning the bus around for writes
system.mem_ctrls.rdPerTurnAround::mean     148.569536                       # Reads before turning the bus around for writes
system.mem_ctrls.rdPerTurnAround::stdev   1332.831345                       # Reads before turning the bus around for writes
system.mem_ctrls.rdPerTurnAround::0-511           149     98.68%     98.68% # Reads before turning the bus around for writes
system.mem_ctrls.rdPerTurnAround::1536-2047            1      0.66%     99.34% # Reads before turning the bus around for writes
system.mem_ctrls.rdPerTurnAround::15872-16383            1      0.66%    100.00% # Reads before turning the bus around for writes
system.mem_ctrls.rdPerTurnAround::total           151                       # Reads before turning the bus around for writes
system.mem_ctrls.wrPerTurnAround::samples          151                       # Writes before turning the bus around for reads
system.mem_ctrls.wrPerTurnAround::mean      21.715232                       # Writes before turning the bus around for reads
system.mem_ctrls.wrPerTurnAround::gmean     21.409251                       # Writes before turning the bus around for reads
system.mem_ctrls.wrPerTurnAround::stdev      3.652173                       # Writes before turning the bus around for reads
system.mem_ctrls.wrPerTurnAround::16               29     19.21%     19.21% # Writes before turning the bus around for reads
system.mem_ctrls.wrPerTurnAround::18                2      1.32%     20.53% # Writes before turning the bus around for reads
system.mem_ctrls.wrPerTurnAround::20                3      1.99%     22.52% # Writes before turning the bus around for reads
system.mem_ctrls.wrPerTurnAround::21               40     26.49%     49.01% # Writes before turning the bus around for reads
system.mem_ctrls.wrPerTurnAround::22               13      8.61%     57.62% # Writes before turning the bus around for reads
system.mem_ctrls.wrPerTurnAround::23                3      1.99%     59.60% # Writes before turning the bus around for reads
system.mem_ctrls.wrPerTurnAround::24               42     27.81%     87.42% # Writes before turning the bus around for reads
system.mem_ctrls.wrPerTurnAround::25                8      5.30%     92.72% # Writes before turning the bus around for reads
system.mem_ctrls.wrPerTurnAround::26                1      0.66%     93.38% # Writes before turning the bus around for reads
system.mem_ctrls.wrPerTurnAround::27                2      1.32%     94.70% # Writes before turning the bus around for reads
system.mem_ctrls.wrPerTurnAround::28                7      4.64%     99.34% # Writes before turning the bus around for reads
system.mem_ctrls.wrPerTurnAround::40                1      0.66%    100.00% # Writes before turning the bus around for reads
system.mem_ctrls.wrPerTurnAround::total           151                       # Writes before turning the bus around for reads
system.mem_ctrls.totQLat                     79604996                       # Total ticks spent queuing
system.mem_ctrls.totMemAccLat               217773746                       # Total ticks spent from burst creation until serviced by the DRAM
system.mem_ctrls.totBusLat                   36845000                       # Total ticks spent in databus transfers
system.mem_ctrls.avgQLat                     10802.69                       # Average queueing delay per DRAM burst
system.mem_ctrls.avgBusLat                    5000.00                       # Average bus latency per DRAM burst
system.mem_ctrls.avgMemAccLat                29552.69                       # Average memory access latency per DRAM burst
system.mem_ctrls.avgRdBW                         0.93                       # Average DRAM read bandwidth in MiByte/s
system.mem_ctrls.avgWrBW                         0.41                       # Average achieved write bandwidth in MiByte/s
system.mem_ctrls.avgRdBWSys                      0.93                       # Average system read bandwidth in MiByte/s
system.mem_ctrls.avgWrBWSys                      0.41                       # Average system write bandwidth in MiByte/s
system.mem_ctrls.peakBW                      12800.00                       # Theoretical peak bandwidth in MiByte/s
system.mem_ctrls.busUtil                         0.01                       # Data bus utilization in percentage
system.mem_ctrls.busUtilRead                     0.01                       # Data bus utilization in percentage for reads
system.mem_ctrls.busUtilWrite                    0.00                       # Data bus utilization in percentage for writes
system.mem_ctrls.avgRdQLen                       1.00                       # Average read queue length when enqueuing
system.mem_ctrls.avgWrQLen                      24.44                       # Average write queue length when enqueuing
system.mem_ctrls.readRowHits                     4370                       # Number of row buffer hits during reads
system.mem_ctrls.writeRowHits                    2865                       # Number of row buffer hits during writes
system.mem_ctrls.readRowHitRate                 59.30                       # Row buffer hit rate for reads
system.mem_ctrls.writeRowHitRate                86.92                       # Row buffer hit rate for writes
system.mem_ctrls.avgGap                   47663470.25                       # Average gap between requests
system.mem_ctrls.pageHitRate                    67.84                       # Row buffer hit rate, read and write combined
system.mem_ctrls_0.actEnergy                 28470960                       # Energy for activate commands per rank (pJ)
system.mem_ctrls_0.preEnergy                 15534750                       # Energy for precharge commands per rank (pJ)
system.mem_ctrls_0.readEnergy                91712400                       # Energy for read commands per rank (pJ)
system.mem_ctrls_0.writeEnergy               13562640                       # Energy for write commands per rank (pJ)
system.mem_ctrls_0.refreshEnergy          33517155360                       # Energy for refresh commands per rank (pJ)
system.mem_ctrls_0.actBackEnergy          14383069920                       # Energy for active background per rank (pJ)
system.mem_ctrls_0.preBackEnergy         295279775250                       # Energy for precharge background per rank (pJ)
system.mem_ctrls_0.totalEnergy           343329281280                       # Total energy per rank (pJ)
system.mem_ctrls_0.averagePower            669.048094                       # Core power per rank (mW)
system.mem_ctrls_0.memoryStateTime::IDLE 489832619250                       # Time in different power states
system.mem_ctrls_0.memoryStateTime::REF   17014140000                       # Time in different power states
system.mem_ctrls_0.memoryStateTime::PRE_PDN            0                       # Time in different power states
system.mem_ctrls_0.memoryStateTime::ACT    2675940750                       # Time in different power states
system.mem_ctrls_0.memoryStateTime::ACT_PDN            0                       # Time in different power states
system.mem_ctrls_1.actEnergy                 25371360                       # Energy for activate commands per rank (pJ)
system.mem_ctrls_1.preEnergy                 13843500                       # Energy for precharge commands per rank (pJ)
system.mem_ctrls_1.readEnergy                83452200                       # Energy for read commands per rank (pJ)
system.mem_ctrls_1.writeEnergy                7685280                       # Energy for write commands per rank (pJ)
system.mem_ctrls_1.refreshEnergy          33517155360                       # Energy for refresh commands per rank (pJ)
system.mem_ctrls_1.actBackEnergy          14072437305                       # Energy for active background per rank (pJ)
system.mem_ctrls_1.preBackEnergy         295552260000                       # Energy for precharge background per rank (pJ)
system.mem_ctrls_1.totalEnergy           343272205005                       # Total energy per rank (pJ)
system.mem_ctrls_1.averagePower            668.936869                       # Core power per rank (mW)
system.mem_ctrls_1.memoryStateTime::IDLE 490131416500                       # Time in different power states
system.mem_ctrls_1.memoryStateTime::REF   17014140000                       # Time in different power states
system.mem_ctrls_1.memoryStateTime::PRE_PDN            0                       # Time in different power states
system.mem_ctrls_1.memoryStateTime::ACT    2378843500                       # Time in different power states
system.mem_ctrls_1.memoryStateTime::ACT_PDN            0                       # Time in different power states
system.cpu_voltage_domain.voltage                   1                       # Voltage in Volts
system.cpu_clk_domain.clock                       500                       # Clock period in ticks
system.cpu0.apic_clk_domain.clock                8000                       # Clock period in ticks
system.cpu0.numCycles                      1015899922                       # number of cpu cycles simulated
system.cpu0.numWorkItemsStarted                     0                       # number of work items this cpu started
system.cpu0.numWorkItemsCompleted                   0                       # number of work items this cpu completed
system.cpu0.kern.inst.arm                           0                       # number of arm instructions executed
system.cpu0.kern.inst.quiesce                       0                       # number of quiesce instructions executed
system.cpu0.committedInsts                     431990                       # Number of instructions committed
system.cpu0.committedOps                       930030                       # Number of ops (including micro ops) committed
system.cpu0.num_int_alu_accesses               912104                       # Number of integer alu accesses
system.cpu0.num_fp_alu_accesses                    33                       # Number of float alu accesses
system.cpu0.num_func_calls                      27579                       # number of times a function call or return occured
system.cpu0.num_conditional_control_insts        62741                       # number of instructions that are conditional controls
system.cpu0.num_int_insts                      912104                       # number of integer instructions
system.cpu0.num_fp_insts                           33                       # number of float instructions
system.cpu0.num_int_register_reads            1839216                       # number of times the integer registers were read
system.cpu0.num_int_register_writes            750862                       # number of times the integer registers were written
system.cpu0.num_fp_register_reads                  14                       # number of times the floating registers were read
system.cpu0.num_fp_register_writes                 25                       # number of times the floating registers were written
system.cpu0.num_cc_register_reads              509115                       # number of times the CC registers were read
system.cpu0.num_cc_register_writes             282192                       # number of times the CC registers were written
system.cpu0.num_mem_refs                       216942                       # number of memory refs
system.cpu0.num_load_insts                     133964                       # Number of load instructions
system.cpu0.num_store_insts                     82978                       # Number of store instructions
system.cpu0.num_idle_cycles              1013657410.691052                       # Number of idle cycles
system.cpu0.num_busy_cycles              2242511.308948                       # Number of busy cycles
system.cpu0.not_idle_fraction                0.002207                       # Percentage of non-idle cycles
system.cpu0.idle_fraction                    0.997793                       # Percentage of idle cycles
system.cpu0.Branches                            98599                       # Number of branches fetched
system.cpu0.op_class::No_OpClass                13186      1.42%      1.42% # Class of executed instruction
system.cpu0.op_class::IntAlu                   693950     74.62%     76.03% # Class of executed instruction
system.cpu0.op_class::IntMult                    1785      0.19%     76.23% # Class of executed instruction
system.cpu0.op_class::IntDiv                     4153      0.45%     76.67% # Class of executed instruction
system.cpu0.op_class::FloatAdd                     17      0.00%     76.67% # Class of executed instruction
system.cpu0.op_class::FloatCmp                      0      0.00%     76.67% # Class of executed instruction
system.cpu0.op_class::FloatCvt                      0      0.00%     76.67% # Class of executed instruction
system.cpu0.op_class::FloatMult                     0      0.00%     76.67% # Class of executed instruction
system.cpu0.op_class::FloatDiv                      0      0.00%     76.67% # Class of executed instruction
system.cpu0.op_class::FloatSqrt                     0      0.00%     76.67% # Class of executed instruction
system.cpu0.op_class::SimdAdd                       0      0.00%     76.67% # Class of executed instruction
system.cpu0.op_class::SimdAddAcc                    0      0.00%     76.67% # Class of executed instruction
system.cpu0.op_class::SimdAlu                       0      0.00%     76.67% # Class of executed instruction
system.cpu0.op_class::SimdCmp                       0      0.00%     76.67% # Class of executed instruction
system.cpu0.op_class::SimdCvt                       0      0.00%     76.67% # Class of executed instruction
system.cpu0.op_class::SimdMisc                      0      0.00%     76.67% # Class of executed instruction
system.cpu0.op_class::SimdMult                      0      0.00%     76.67% # Class of executed instruction
system.cpu0.op_class::SimdMultAcc                   0      0.00%     76.67% # Class of executed instruction
system.cpu0.op_class::SimdShift                     0      0.00%     76.67% # Class of executed instruction
system.cpu0.op_class::SimdShiftAcc                  0      0.00%     76.67% # Class of executed instruction
system.cpu0.op_class::SimdSqrt                      0      0.00%     76.67% # Class of executed instruction
system.cpu0.op_class::SimdFloatAdd                  0      0.00%     76.67% # Class of executed instruction
system.cpu0.op_class::SimdFloatAlu                  0      0.00%     76.67% # Class of executed instruction
system.cpu0.op_class::SimdFloatCmp                  0      0.00%     76.67% # Class of executed instruction
system.cpu0.op_class::SimdFloatCvt                  0      0.00%     76.67% # Class of executed instruction
system.cpu0.op_class::SimdFloatDiv                  0      0.00%     76.67% # Class of executed instruction
system.cpu0.op_class::SimdFloatMisc                 0      0.00%     76.67% # Class of executed instruction
system.cpu0.op_class::SimdFloatMult                 0      0.00%     76.67% # Class of executed instruction
system.cpu0.op_class::SimdFloatMultAcc              0      0.00%     76.67% # Class of executed instruction
system.cpu0.op_class::SimdFloatSqrt                 0      0.00%     76.67% # Class of executed instruction
system.cpu0.op_class::MemRead                  133964     14.40%     91.08% # Class of executed instruction
system.cpu0.op_class::MemWrite                  82978      8.92%    100.00% # Class of executed instruction
system.cpu0.op_class::IprAccess                     0      0.00%    100.00% # Class of executed instruction
system.cpu0.op_class::InstPrefetch                  0      0.00%    100.00% # Class of executed instruction
system.cpu0.op_class::total                    930033                       # Class of executed instruction
system.cpu1.apic_clk_domain.clock                8000                       # Clock period in ticks
system.cpu1.numCycles                      1017006362                       # number of cpu cycles simulated
system.cpu1.numWorkItemsStarted                     0                       # number of work items this cpu started
system.cpu1.numWorkItemsCompleted                   0                       # number of work items this cpu completed
system.cpu1.kern.inst.arm                           0                       # number of arm instructions executed
system.cpu1.kern.inst.quiesce                       0                       # number of quiesce instructions executed
system.cpu1.committedInsts                    1092099                       # Number of instructions committed
system.cpu1.committedOps                      2118004                       # Number of ops (including micro ops) committed
system.cpu1.num_int_alu_accesses              2085211                       # Number of integer alu accesses
system.cpu1.num_fp_alu_accesses                  2182                       # Number of float alu accesses
system.cpu1.num_func_calls                      45159                       # number of times a function call or return occured
system.cpu1.num_conditional_control_insts       172177                       # number of instructions that are conditional controls
system.cpu1.num_int_insts                     2085211                       # number of integer instructions
system.cpu1.num_fp_insts                         2182                       # number of float instructions
system.cpu1.num_int_register_reads            4236769                       # number of times the integer registers were read
system.cpu1.num_int_register_writes           1697507                       # number of times the integer registers were written
system.cpu1.num_fp_register_reads                3630                       # number of times the floating registers were read
system.cpu1.num_fp_register_writes               1789                       # number of times the floating registers were written
system.cpu1.num_cc_register_reads             1221004                       # number of times the CC registers were read
system.cpu1.num_cc_register_writes             704872                       # number of times the CC registers were written
system.cpu1.num_mem_refs                       483109                       # number of memory refs
system.cpu1.num_load_insts                     297179                       # Number of load instructions
system.cpu1.num_store_insts                    185930                       # Number of store instructions
system.cpu1.num_idle_cycles              1011822284.205394                       # Number of idle cycles
system.cpu1.num_busy_cycles              5184077.794606                       # Number of busy cycles
system.cpu1.not_idle_fraction                0.005097                       # Percentage of non-idle cycles
system.cpu1.idle_fraction                    0.994903                       # Percentage of idle cycles
system.cpu1.Branches                           234383                       # Number of branches fetched
system.cpu1.op_class::No_OpClass                21573      1.02%      1.02% # Class of executed instruction
system.cpu1.op_class::IntAlu                  1602708     75.67%     76.69% # Class of executed instruction
system.cpu1.op_class::IntMult                    2701      0.13%     76.81% # Class of executed instruction
system.cpu1.op_class::IntDiv                     6422      0.30%     77.12% # Class of executed instruction
system.cpu1.op_class::FloatAdd                   1586      0.07%     77.19% # Class of executed instruction
system.cpu1.op_class::FloatCmp                      0      0.00%     77.19% # Class of executed instruction
system.cpu1.op_class::FloatCvt                      0      0.00%     77.19% # Class of executed instruction
system.cpu1.op_class::FloatMult                     0      0.00%     77.19% # Class of executed instruction
system.cpu1.op_class::FloatDiv                      0      0.00%     77.19% # Class of executed instruction
system.cpu1.op_class::FloatSqrt                     0      0.00%     77.19% # Class of executed instruction
system.cpu1.op_class::SimdAdd                       0      0.00%     77.19% # Class of executed instruction
system.cpu1.op_class::SimdAddAcc                    0      0.00%     77.19% # Class of executed instruction
system.cpu1.op_class::SimdAlu                       0      0.00%     77.19% # Class of executed instruction
system.cpu1.op_class::SimdCmp                       0      0.00%     77.19% # Class of executed instruction
system.cpu1.op_class::SimdCvt                       0      0.00%     77.19% # Class of executed instruction
system.cpu1.op_class::SimdMisc                      0      0.00%     77.19% # Class of executed instruction
system.cpu1.op_class::SimdMult                      0      0.00%     77.19% # Class of executed instruction
system.cpu1.op_class::SimdMultAcc                   0      0.00%     77.19% # Class of executed instruction
system.cpu1.op_class::SimdShift                     0      0.00%     77.19% # Class of executed instruction
system.cpu1.op_class::SimdShiftAcc                  0      0.00%     77.19% # Class of executed instruction
system.cpu1.op_class::SimdSqrt                      0      0.00%     77.19% # Class of executed instruction
system.cpu1.op_class::SimdFloatAdd                  0      0.00%     77.19% # Class of executed instruction
system.cpu1.op_class::SimdFloatAlu                  0      0.00%     77.19% # Class of executed instruction
system.cpu1.op_class::SimdFloatCmp                  0      0.00%     77.19% # Class of executed instruction
system.cpu1.op_class::SimdFloatCvt                  0      0.00%     77.19% # Class of executed instruction
system.cpu1.op_class::SimdFloatDiv                  0      0.00%     77.19% # Class of executed instruction
system.cpu1.op_class::SimdFloatMisc                 0      0.00%     77.19% # Class of executed instruction
system.cpu1.op_class::SimdFloatMult                 0      0.00%     77.19% # Class of executed instruction
system.cpu1.op_class::SimdFloatMultAcc              0      0.00%     77.19% # Class of executed instruction
system.cpu1.op_class::SimdFloatSqrt                 0      0.00%     77.19% # Class of executed instruction
system.cpu1.op_class::MemRead                  297179     14.03%     91.22% # Class of executed instruction
system.cpu1.op_class::MemWrite                 185930      8.78%    100.00% # Class of executed instruction
system.cpu1.op_class::IprAccess                     0      0.00%    100.00% # Class of executed instruction
system.cpu1.op_class::InstPrefetch                  0      0.00%    100.00% # Class of executed instruction
system.cpu1.op_class::total                   2118099                       # Class of executed instruction
system.cpu2.apic_clk_domain.clock                8000                       # Clock period in ticks
system.cpu2.numCycles                      1018737170                       # number of cpu cycles simulated
system.cpu2.numWorkItemsStarted                     0                       # number of work items this cpu started
system.cpu2.numWorkItemsCompleted                   0                       # number of work items this cpu completed
system.cpu2.kern.inst.arm                           0                       # number of arm instructions executed
system.cpu2.kern.inst.quiesce                       0                       # number of quiesce instructions executed
system.cpu2.committedInsts                     466307                       # Number of instructions committed
system.cpu2.committedOps                       980382                       # Number of ops (including micro ops) committed
system.cpu2.num_int_alu_accesses               959943                       # Number of integer alu accesses
system.cpu2.num_fp_alu_accesses                   154                       # Number of float alu accesses
system.cpu2.num_func_calls                      25963                       # number of times a function call or return occured
system.cpu2.num_conditional_control_insts        72247                       # number of instructions that are conditional controls
system.cpu2.num_int_insts                      959943                       # number of integer instructions
system.cpu2.num_fp_insts                          154                       # number of float instructions
system.cpu2.num_int_register_reads            1945865                       # number of times the integer registers were read
system.cpu2.num_int_register_writes            789877                       # number of times the integer registers were written
system.cpu2.num_fp_register_reads                 285                       # number of times the floating registers were read
system.cpu2.num_fp_register_writes                124                       # number of times the floating registers were written
system.cpu2.num_cc_register_reads              558964                       # number of times the CC registers were read
system.cpu2.num_cc_register_writes             297327                       # number of times the CC registers were written
system.cpu2.num_mem_refs                       231849                       # number of memory refs
system.cpu2.num_load_insts                     142279                       # Number of load instructions
system.cpu2.num_store_insts                     89570                       # Number of store instructions
system.cpu2.num_idle_cycles              1016415501.748039                       # Number of idle cycles
system.cpu2.num_busy_cycles              2321668.251961                       # Number of busy cycles
system.cpu2.not_idle_fraction                0.002279                       # Percentage of non-idle cycles
system.cpu2.idle_fraction                    0.997721                       # Percentage of idle cycles
system.cpu2.Branches                           106906                       # Number of branches fetched
system.cpu2.op_class::No_OpClass                16241      1.66%      1.66% # Class of executed instruction
system.cpu2.op_class::IntAlu                   724560     73.90%     75.56% # Class of executed instruction
system.cpu2.op_class::IntMult                    2144      0.22%     75.78% # Class of executed instruction
system.cpu2.op_class::IntDiv                     5529      0.56%     76.34% # Class of executed instruction
system.cpu2.op_class::FloatAdd                     87      0.01%     76.35% # Class of executed instruction
system.cpu2.op_class::FloatCmp                      0      0.00%     76.35% # Class of executed instruction
system.cpu2.op_class::FloatCvt                      0      0.00%     76.35% # Class of executed instruction
system.cpu2.op_class::FloatMult                     0      0.00%     76.35% # Class of executed instruction
system.cpu2.op_class::FloatDiv                      0      0.00%     76.35% # Class of executed instruction
system.cpu2.op_class::FloatSqrt                     0      0.00%     76.35% # Class of executed instruction
system.cpu2.op_class::SimdAdd                       0      0.00%     76.35% # Class of executed instruction
system.cpu2.op_class::SimdAddAcc                    0      0.00%     76.35% # Class of executed instruction
system.cpu2.op_class::SimdAlu                       0      0.00%     76.35% # Class of executed instruction
system.cpu2.op_class::SimdCmp                       0      0.00%     76.35% # Class of executed instruction
system.cpu2.op_class::SimdCvt                       0      0.00%     76.35% # Class of executed instruction
system.cpu2.op_class::SimdMisc                      0      0.00%     76.35% # Class of executed instruction
system.cpu2.op_class::SimdMult                      0      0.00%     76.35% # Class of executed instruction
system.cpu2.op_class::SimdMultAcc                   0      0.00%     76.35% # Class of executed instruction
system.cpu2.op_class::SimdShift                     0      0.00%     76.35% # Class of executed instruction
system.cpu2.op_class::SimdShiftAcc                  0      0.00%     76.35% # Class of executed instruction
system.cpu2.op_class::SimdSqrt                      0      0.00%     76.35% # Class of executed instruction
system.cpu2.op_class::SimdFloatAdd                  0      0.00%     76.35% # Class of executed instruction
system.cpu2.op_class::SimdFloatAlu                  0      0.00%     76.35% # Class of executed instruction
system.cpu2.op_class::SimdFloatCmp                  0      0.00%     76.35% # Class of executed instruction
system.cpu2.op_class::SimdFloatCvt                  0      0.00%     76.35% # Class of executed instruction
system.cpu2.op_class::SimdFloatDiv                  0      0.00%     76.35% # Class of executed instruction
system.cpu2.op_class::SimdFloatMisc                 0      0.00%     76.35% # Class of executed instruction
system.cpu2.op_class::SimdFloatMult                 0      0.00%     76.35% # Class of executed instruction
system.cpu2.op_class::SimdFloatMultAcc              0      0.00%     76.35% # Class of executed instruction
system.cpu2.op_class::SimdFloatSqrt                 0      0.00%     76.35% # Class of executed instruction
system.cpu2.op_class::MemRead                  142279     14.51%     90.86% # Class of executed instruction
system.cpu2.op_class::MemWrite                  89570      9.14%    100.00% # Class of executed instruction
system.cpu2.op_class::IprAccess                     0      0.00%    100.00% # Class of executed instruction
system.cpu2.op_class::InstPrefetch                  0      0.00%    100.00% # Class of executed instruction
system.cpu2.op_class::total                    980410                       # Class of executed instruction
system.cpu3.apic_clk_domain.clock                8000                       # Clock period in ticks
system.cpu3.numCycles                      1021186030                       # number of cpu cycles simulated
system.cpu3.numWorkItemsStarted                     0                       # number of work items this cpu started
system.cpu3.numWorkItemsCompleted                   0                       # number of work items this cpu completed
system.cpu3.kern.inst.arm                           0                       # number of arm instructions executed
system.cpu3.kern.inst.quiesce                       0                       # number of quiesce instructions executed
system.cpu3.committedInsts                  265770988                       # Number of instructions committed
system.cpu3.committedOps                    479230351                       # Number of ops (including micro ops) committed
system.cpu3.num_int_alu_accesses            269594951                       # Number of integer alu accesses
system.cpu3.num_fp_alu_accesses             270615189                       # Number of float alu accesses
system.cpu3.num_func_calls                    9865429                       # number of times a function call or return occured
system.cpu3.num_conditional_control_insts     15000609                       # number of instructions that are conditional controls
system.cpu3.num_int_insts                   269594951                       # number of integer instructions
system.cpu3.num_fp_insts                    270615189                       # number of float instructions
system.cpu3.num_int_register_reads          512592125                       # number of times the integer registers were read
system.cpu3.num_int_register_writes         176086616                       # number of times the integer registers were written
system.cpu3.num_fp_register_reads           446719424                       # number of times the floating registers were read
system.cpu3.num_fp_register_writes          249466775                       # number of times the floating registers were written
system.cpu3.num_cc_register_reads           106922784                       # number of times the CC registers were read
system.cpu3.num_cc_register_writes           82980348                       # number of times the CC registers were written
system.cpu3.num_mem_refs                     84034223                       # number of memory refs
system.cpu3.num_load_insts                   62873292                       # Number of load instructions
system.cpu3.num_store_insts                  21160931                       # Number of store instructions
system.cpu3.num_idle_cycles              4294277.044176                       # Number of idle cycles
system.cpu3.num_busy_cycles              1016891752.955824                       # Number of busy cycles
system.cpu3.not_idle_fraction                0.995795                       # Percentage of non-idle cycles
system.cpu3.idle_fraction                    0.004205                       # Percentage of idle cycles
system.cpu3.Branches                         27049543                       # Number of branches fetched
system.cpu3.op_class::No_OpClass                11444      0.00%      0.00% # Class of executed instruction
system.cpu3.op_class::IntAlu                244807504     51.08%     51.09% # Class of executed instruction
system.cpu3.op_class::IntMult                    2304      0.00%     51.09% # Class of executed instruction
system.cpu3.op_class::IntDiv                     1821      0.00%     51.09% # Class of executed instruction
system.cpu3.op_class::FloatAdd              150373151     31.38%     82.46% # Class of executed instruction
system.cpu3.op_class::FloatCmp                      0      0.00%     82.46% # Class of executed instruction
system.cpu3.op_class::FloatCvt                      0      0.00%     82.46% # Class of executed instruction
system.cpu3.op_class::FloatMult                     0      0.00%     82.46% # Class of executed instruction
system.cpu3.op_class::FloatDiv                      0      0.00%     82.46% # Class of executed instruction
system.cpu3.op_class::FloatSqrt                     0      0.00%     82.46% # Class of executed instruction
system.cpu3.op_class::SimdAdd                       0      0.00%     82.46% # Class of executed instruction
system.cpu3.op_class::SimdAddAcc                    0      0.00%     82.46% # Class of executed instruction
system.cpu3.op_class::SimdAlu                       0      0.00%     82.46% # Class of executed instruction
system.cpu3.op_class::SimdCmp                       0      0.00%     82.46% # Class of executed instruction
system.cpu3.op_class::SimdCvt                       0      0.00%     82.46% # Class of executed instruction
system.cpu3.op_class::SimdMisc                      0      0.00%     82.46% # Class of executed instruction
system.cpu3.op_class::SimdMult                      0      0.00%     82.46% # Class of executed instruction
system.cpu3.op_class::SimdMultAcc                   0      0.00%     82.46% # Class of executed instruction
system.cpu3.op_class::SimdShift                     0      0.00%     82.46% # Class of executed instruction
system.cpu3.op_class::SimdShiftAcc                  0      0.00%     82.46% # Class of executed instruction
system.cpu3.op_class::SimdSqrt                      0      0.00%     82.46% # Class of executed instruction
system.cpu3.op_class::SimdFloatAdd                  0      0.00%     82.46% # Class of executed instruction
system.cpu3.op_class::SimdFloatAlu                  0      0.00%     82.46% # Class of executed instruction
system.cpu3.op_class::SimdFloatCmp                  0      0.00%     82.46% # Class of executed instruction
system.cpu3.op_class::SimdFloatCvt                  0      0.00%     82.46% # Class of executed instruction
system.cpu3.op_class::SimdFloatDiv                  0      0.00%     82.46% # Class of executed instruction
system.cpu3.op_class::SimdFloatMisc                 0      0.00%     82.46% # Class of executed instruction
system.cpu3.op_class::SimdFloatMult                 0      0.00%     82.46% # Class of executed instruction
system.cpu3.op_class::SimdFloatMultAcc              0      0.00%     82.46% # Class of executed instruction
system.cpu3.op_class::SimdFloatSqrt                 0      0.00%     82.46% # Class of executed instruction
system.cpu3.op_class::MemRead                62873292     13.12%     95.58% # Class of executed instruction
system.cpu3.op_class::MemWrite               21160931      4.42%    100.00% # Class of executed instruction
system.cpu3.op_class::IprAccess                     0      0.00%    100.00% # Class of executed instruction
system.cpu3.op_class::InstPrefetch                  0      0.00%    100.00% # Class of executed instruction
system.cpu3.op_class::total                 479230447                       # Class of executed instruction
system.iobus.trans_dist::ReadReq                  110                       # Transaction distribution
system.iobus.trans_dist::ReadResp                 110                       # Transaction distribution
system.iobus.trans_dist::WriteReq                 632                       # Transaction distribution
system.iobus.trans_dist::WriteResp                632                       # Transaction distribution
system.iobus.trans_dist::MessageReq                21                       # Transaction distribution
system.iobus.trans_dist::MessageResp               21                       # Transaction distribution
system.iobus.pkt_count_system.pc.south_bridge.io_apic.int_master::system.ruby.l0_cntrl0.sequencer.pio-slave-port            4                       # Packet count per connected master and slave (bytes)
system.iobus.pkt_count_system.pc.south_bridge.io_apic.int_master::system.ruby.l0_cntrl1.sequencer.pio-slave-port            4                       # Packet count per connected master and slave (bytes)
system.iobus.pkt_count_system.pc.south_bridge.io_apic.int_master::system.ruby.l0_cntrl2.sequencer.pio-slave-port            4                       # Packet count per connected master and slave (bytes)
system.iobus.pkt_count_system.pc.south_bridge.io_apic.int_master::system.ruby.l0_cntrl3.sequencer.pio-slave-port            4                       # Packet count per connected master and slave (bytes)
system.iobus.pkt_count_system.pc.south_bridge.io_apic.int_master::total           16                       # Packet count per connected master and slave (bytes)
system.iobus.pkt_count_system.ruby.l0_cntrl0.sequencer.mem-master-port::system.pc.south_bridge.ide.pio           34                       # Packet count per connected master and slave (bytes)
system.iobus.pkt_count_system.ruby.l0_cntrl0.sequencer.mem-master-port::system.pc.south_bridge.io_apic.pio           14                       # Packet count per connected master and slave (bytes)
system.iobus.pkt_count_system.ruby.l0_cntrl0.sequencer.mem-master-port::system.pc.com_1.pio          162                       # Packet count per connected master and slave (bytes)
system.iobus.pkt_count_system.ruby.l0_cntrl0.sequencer.mem-master-port::system.ruby.l0_cntrl0.sequencer.pio-slave-port          274                       # Packet count per connected master and slave (bytes)
system.iobus.pkt_count_system.ruby.l0_cntrl0.sequencer.mem-master-port::system.ruby.l0_cntrl1.sequencer.pio-slave-port            2                       # Packet count per connected master and slave (bytes)
system.iobus.pkt_count_system.ruby.l0_cntrl0.sequencer.mem-master-port::total          486                       # Packet count per connected master and slave (bytes)
system.iobus.pkt_count_system.ruby.l0_cntrl1.sequencer.mem-master-port::system.pc.south_bridge.ide.pio           46                       # Packet count per connected master and slave (bytes)
system.iobus.pkt_count_system.ruby.l0_cntrl1.sequencer.mem-master-port::system.pc.south_bridge.io_apic.pio            8                       # Packet count per connected master and slave (bytes)
system.iobus.pkt_count_system.ruby.l0_cntrl1.sequencer.mem-master-port::system.ruby.l0_cntrl0.sequencer.pio-slave-port            4                       # Packet count per connected master and slave (bytes)
system.iobus.pkt_count_system.ruby.l0_cntrl1.sequencer.mem-master-port::system.ruby.l0_cntrl1.sequencer.pio-slave-port          286                       # Packet count per connected master and slave (bytes)
system.iobus.pkt_count_system.ruby.l0_cntrl1.sequencer.mem-master-port::system.ruby.l0_cntrl2.sequencer.pio-slave-port            2                       # Packet count per connected master and slave (bytes)
system.iobus.pkt_count_system.ruby.l0_cntrl1.sequencer.mem-master-port::system.ruby.l0_cntrl3.sequencer.pio-slave-port            4                       # Packet count per connected master and slave (bytes)
system.iobus.pkt_count_system.ruby.l0_cntrl1.sequencer.mem-master-port::total          350                       # Packet count per connected master and slave (bytes)
system.iobus.pkt_count_system.ruby.l0_cntrl2.sequencer.mem-master-port::system.pc.south_bridge.ide.pio           46                       # Packet count per connected master and slave (bytes)
system.iobus.pkt_count_system.ruby.l0_cntrl2.sequencer.mem-master-port::system.pc.south_bridge.io_apic.pio            8                       # Packet count per connected master and slave (bytes)
system.iobus.pkt_count_system.ruby.l0_cntrl2.sequencer.mem-master-port::system.ruby.l0_cntrl2.sequencer.pio-slave-port          270                       # Packet count per connected master and slave (bytes)
system.iobus.pkt_count_system.ruby.l0_cntrl2.sequencer.mem-master-port::system.ruby.l0_cntrl3.sequencer.pio-slave-port            2                       # Packet count per connected master and slave (bytes)
system.iobus.pkt_count_system.ruby.l0_cntrl2.sequencer.mem-master-port::total          326                       # Packet count per connected master and slave (bytes)
system.iobus.pkt_count_system.ruby.l0_cntrl3.sequencer.mem-master-port::system.pc.south_bridge.ide.pio           12                       # Packet count per connected master and slave (bytes)
system.iobus.pkt_count_system.ruby.l0_cntrl3.sequencer.mem-master-port::system.pc.south_bridge.io_apic.pio            6                       # Packet count per connected master and slave (bytes)
system.iobus.pkt_count_system.ruby.l0_cntrl3.sequencer.mem-master-port::system.pc.com_1.pio           22                       # Packet count per connected master and slave (bytes)
system.iobus.pkt_count_system.ruby.l0_cntrl3.sequencer.mem-master-port::system.ruby.l0_cntrl0.sequencer.pio-slave-port            6                       # Packet count per connected master and slave (bytes)
system.iobus.pkt_count_system.ruby.l0_cntrl3.sequencer.mem-master-port::system.ruby.l0_cntrl1.sequencer.pio-slave-port            2                       # Packet count per connected master and slave (bytes)
system.iobus.pkt_count_system.ruby.l0_cntrl3.sequencer.mem-master-port::system.ruby.l0_cntrl2.sequencer.pio-slave-port            4                       # Packet count per connected master and slave (bytes)
system.iobus.pkt_count_system.ruby.l0_cntrl3.sequencer.mem-master-port::system.ruby.l0_cntrl3.sequencer.pio-slave-port          296                       # Packet count per connected master and slave (bytes)
system.iobus.pkt_count_system.ruby.l0_cntrl3.sequencer.mem-master-port::total          348                       # Packet count per connected master and slave (bytes)
system.iobus.pkt_count::total                    1526                       # Packet count per connected master and slave (bytes)
system.iobus.pkt_size_system.pc.south_bridge.io_apic.int_master::system.ruby.l0_cntrl0.sequencer.pio-slave-port            8                       # Cumulative packet size per connected master and slave (bytes)
system.iobus.pkt_size_system.pc.south_bridge.io_apic.int_master::system.ruby.l0_cntrl1.sequencer.pio-slave-port            8                       # Cumulative packet size per connected master and slave (bytes)
system.iobus.pkt_size_system.pc.south_bridge.io_apic.int_master::system.ruby.l0_cntrl2.sequencer.pio-slave-port            8                       # Cumulative packet size per connected master and slave (bytes)
system.iobus.pkt_size_system.pc.south_bridge.io_apic.int_master::system.ruby.l0_cntrl3.sequencer.pio-slave-port            8                       # Cumulative packet size per connected master and slave (bytes)
system.iobus.pkt_size_system.pc.south_bridge.io_apic.int_master::total           32                       # Cumulative packet size per connected master and slave (bytes)
system.iobus.pkt_size_system.ruby.l0_cntrl0.sequencer.mem-master-port::system.pc.south_bridge.ide.pio           20                       # Cumulative packet size per connected master and slave (bytes)
system.iobus.pkt_size_system.ruby.l0_cntrl0.sequencer.mem-master-port::system.pc.south_bridge.io_apic.pio           28                       # Cumulative packet size per connected master and slave (bytes)
system.iobus.pkt_size_system.ruby.l0_cntrl0.sequencer.mem-master-port::system.pc.com_1.pio           81                       # Cumulative packet size per connected master and slave (bytes)
system.iobus.pkt_size_system.ruby.l0_cntrl0.sequencer.mem-master-port::system.ruby.l0_cntrl0.sequencer.pio-slave-port          548                       # Cumulative packet size per connected master and slave (bytes)
system.iobus.pkt_size_system.ruby.l0_cntrl0.sequencer.mem-master-port::system.ruby.l0_cntrl1.sequencer.pio-slave-port            4                       # Cumulative packet size per connected master and slave (bytes)
system.iobus.pkt_size_system.ruby.l0_cntrl0.sequencer.mem-master-port::total          681                       # Cumulative packet size per connected master and slave (bytes)
system.iobus.pkt_size_system.ruby.l0_cntrl1.sequencer.mem-master-port::system.pc.south_bridge.ide.pio           26                       # Cumulative packet size per connected master and slave (bytes)
system.iobus.pkt_size_system.ruby.l0_cntrl1.sequencer.mem-master-port::system.pc.south_bridge.io_apic.pio           16                       # Cumulative packet size per connected master and slave (bytes)
system.iobus.pkt_size_system.ruby.l0_cntrl1.sequencer.mem-master-port::system.ruby.l0_cntrl0.sequencer.pio-slave-port            8                       # Cumulative packet size per connected master and slave (bytes)
system.iobus.pkt_size_system.ruby.l0_cntrl1.sequencer.mem-master-port::system.ruby.l0_cntrl1.sequencer.pio-slave-port          572                       # Cumulative packet size per connected master and slave (bytes)
system.iobus.pkt_size_system.ruby.l0_cntrl1.sequencer.mem-master-port::system.ruby.l0_cntrl2.sequencer.pio-slave-port            4                       # Cumulative packet size per connected master and slave (bytes)
system.iobus.pkt_size_system.ruby.l0_cntrl1.sequencer.mem-master-port::system.ruby.l0_cntrl3.sequencer.pio-slave-port            8                       # Cumulative packet size per connected master and slave (bytes)
system.iobus.pkt_size_system.ruby.l0_cntrl1.sequencer.mem-master-port::total          634                       # Cumulative packet size per connected master and slave (bytes)
system.iobus.pkt_size_system.ruby.l0_cntrl2.sequencer.mem-master-port::system.pc.south_bridge.ide.pio           26                       # Cumulative packet size per connected master and slave (bytes)
system.iobus.pkt_size_system.ruby.l0_cntrl2.sequencer.mem-master-port::system.pc.south_bridge.io_apic.pio           16                       # Cumulative packet size per connected master and slave (bytes)
system.iobus.pkt_size_system.ruby.l0_cntrl2.sequencer.mem-master-port::system.ruby.l0_cntrl2.sequencer.pio-slave-port          540                       # Cumulative packet size per connected master and slave (bytes)
system.iobus.pkt_size_system.ruby.l0_cntrl2.sequencer.mem-master-port::system.ruby.l0_cntrl3.sequencer.pio-slave-port            4                       # Cumulative packet size per connected master and slave (bytes)
system.iobus.pkt_size_system.ruby.l0_cntrl2.sequencer.mem-master-port::total          586                       # Cumulative packet size per connected master and slave (bytes)
system.iobus.pkt_size_system.ruby.l0_cntrl3.sequencer.mem-master-port::system.pc.south_bridge.ide.pio            6                       # Cumulative packet size per connected master and slave (bytes)
system.iobus.pkt_size_system.ruby.l0_cntrl3.sequencer.mem-master-port::system.pc.south_bridge.io_apic.pio           12                       # Cumulative packet size per connected master and slave (bytes)
system.iobus.pkt_size_system.ruby.l0_cntrl3.sequencer.mem-master-port::system.pc.com_1.pio           11                       # Cumulative packet size per connected master and slave (bytes)
system.iobus.pkt_size_system.ruby.l0_cntrl3.sequencer.mem-master-port::system.ruby.l0_cntrl0.sequencer.pio-slave-port           12                       # Cumulative packet size per connected master and slave (bytes)
system.iobus.pkt_size_system.ruby.l0_cntrl3.sequencer.mem-master-port::system.ruby.l0_cntrl1.sequencer.pio-slave-port            4                       # Cumulative packet size per connected master and slave (bytes)
system.iobus.pkt_size_system.ruby.l0_cntrl3.sequencer.mem-master-port::system.ruby.l0_cntrl2.sequencer.pio-slave-port            8                       # Cumulative packet size per connected master and slave (bytes)
system.iobus.pkt_size_system.ruby.l0_cntrl3.sequencer.mem-master-port::system.ruby.l0_cntrl3.sequencer.pio-slave-port          592                       # Cumulative packet size per connected master and slave (bytes)
system.iobus.pkt_size_system.ruby.l0_cntrl3.sequencer.mem-master-port::total          645                       # Cumulative packet size per connected master and slave (bytes)
system.iobus.pkt_size::total                     2578                       # Cumulative packet size per connected master and slave (bytes)
system.iobus.reqLayer2.occupancy               122500                       # Layer occupancy (ticks)
system.iobus.reqLayer2.utilization                0.0                       # Layer utilization (%)
system.iobus.reqLayer8.occupancy                32996                       # Layer occupancy (ticks)
system.iobus.reqLayer8.utilization                0.0                       # Layer utilization (%)
system.iobus.reqLayer12.occupancy              120000                       # Layer occupancy (ticks)
system.iobus.reqLayer12.utilization               0.0                       # Layer utilization (%)
system.iobus.reqLayer17.occupancy              353999                       # Layer occupancy (ticks)
system.iobus.reqLayer17.utilization               0.0                       # Layer utilization (%)
system.iobus.reqLayer18.occupancy              358497                       # Layer occupancy (ticks)
system.iobus.reqLayer18.utilization               0.0                       # Layer utilization (%)
system.iobus.reqLayer19.occupancy              345498                       # Layer occupancy (ticks)
system.iobus.reqLayer19.utilization               0.0                       # Layer utilization (%)
system.iobus.reqLayer20.occupancy              341494                       # Layer occupancy (ticks)
system.iobus.reqLayer20.utilization               0.0                       # Layer utilization (%)
system.iobus.respLayer0.occupancy               11497                       # Layer occupancy (ticks)
system.iobus.respLayer0.utilization               0.0                       # Layer utilization (%)
system.iobus.respLayer2.occupancy              378500                       # Layer occupancy (ticks)
system.iobus.respLayer2.utilization               0.0                       # Layer utilization (%)
system.iobus.respLayer4.occupancy              260500                       # Layer occupancy (ticks)
system.iobus.respLayer4.utilization               0.0                       # Layer utilization (%)
system.iobus.respLayer6.occupancy              241500                       # Layer occupancy (ticks)
system.iobus.respLayer6.utilization               0.0                       # Layer utilization (%)
system.iobus.respLayer8.occupancy              266000                       # Layer occupancy (ticks)
system.iobus.respLayer8.utilization               0.0                       # Layer utilization (%)
system.pc.south_bridge.ide.disks.dma_read_full_pages            0                       # Number of full page size DMA reads (not PRD).
system.pc.south_bridge.ide.disks.dma_read_bytes            0                       # Number of bytes transfered via DMA reads (not PRD).
system.pc.south_bridge.ide.disks.dma_read_txs            0                       # Number of DMA read transactions (not PRD).
system.pc.south_bridge.ide.disks.dma_write_full_pages           45                       # Number of full page size DMA writes.
system.pc.south_bridge.ide.disks.dma_write_bytes       184320                       # Number of bytes transfered via DMA writes.
system.pc.south_bridge.ide.disks.dma_write_txs           45                       # Number of DMA write transactions.
system.ruby.clk_domain.clock                      500                       # Clock period in ticks
system.ruby.delayHist::bucket_size                  4                       # delay histogram for all message
system.ruby.delayHist::max_bucket                  39                       # delay histogram for all message
system.ruby.delayHist::samples               24903989                       # delay histogram for all message
system.ruby.delayHist::mean                  0.019621                       # delay histogram for all message
system.ruby.delayHist::stdev                 0.397226                       # delay histogram for all message
system.ruby.delayHist                    |    24843131     99.76%     99.76% |         467      0.00%     99.76% |       60184      0.24%    100.00% |          57      0.00%    100.00% |         122      0.00%    100.00% |           6      0.00%    100.00% |          22      0.00%    100.00% |           0      0.00%    100.00% |           0      0.00%    100.00% |           0      0.00%    100.00% # delay histogram for all message
system.ruby.delayHist::total                 24903989                       # delay histogram for all message
system.ruby.outstanding_req_hist_seqr::bucket_size            1                      
system.ruby.outstanding_req_hist_seqr::max_bucket            9                      
system.ruby.outstanding_req_hist_seqr::samples    462455726                      
system.ruby.outstanding_req_hist_seqr::mean     1.000000                      
system.ruby.outstanding_req_hist_seqr::gmean     1.000000                      
system.ruby.outstanding_req_hist_seqr::stdev     0.000664                      
system.ruby.outstanding_req_hist_seqr    |           0      0.00%      0.00% |   462455522    100.00%    100.00% |         204      0.00%    100.00% |           0      0.00%    100.00% |           0      0.00%    100.00% |           0      0.00%    100.00% |           0      0.00%    100.00% |           0      0.00%    100.00% |           0      0.00%    100.00% |           0      0.00%    100.00%
system.ruby.outstanding_req_hist_seqr::total    462455726                      
system.ruby.latency_hist_seqr::bucket_size          128                      
system.ruby.latency_hist_seqr::max_bucket         1279                      
system.ruby.latency_hist_seqr::samples      462455726                      
system.ruby.latency_hist_seqr::mean          1.215079                      
system.ruby.latency_hist_seqr::gmean         1.081100                      
system.ruby.latency_hist_seqr::stdev         1.305317                      
system.ruby.latency_hist_seqr            |   462452681    100.00%    100.00% |        2895      0.00%    100.00% |          29      0.00%    100.00% |          29      0.00%    100.00% |          61      0.00%    100.00% |          30      0.00%    100.00% |           0      0.00%    100.00% |           0      0.00%    100.00% |           1      0.00%    100.00% |           0      0.00%    100.00%
[...]
system.ruby.L1Cache_Controller.Ack_all   |        1999     36.02%     36.02% |        1369     24.67%     60.68% |        1106     19.93%     80.61% |        1076     19.39%    100.00%
system.ruby.L1Cache_Controller.Ack_all::total         5550                      
system.ruby.L1Cache_Controller.WB_Ack    |       56007      8.41%      8.41% |       71469     10.73%     19.14% |       29697      4.46%     23.60% |      508854     76.40%    100.00%
system.ruby.L1Cache_Controller.WB_Ack::total       666027                      
system.ruby.L1Cache_Controller.I.Load    |       70924      9.35%      9.35% |       84851     11.19%     20.55% |       41474      5.47%     26.02% |      560916     73.98%    100.00%
system.ruby.L1Cache_Controller.I.Load::total       758165                      
system.ruby.L1Cache_Controller.I.Store   |       14234     15.62%     15.62% |       22398     24.58%     40.20% |       10205     11.20%     51.39% |       44298     48.61%    100.00%
system.ruby.L1Cache_Controller.I.Store::total        91135                      
system.ruby.L1Cache_Controller.I.Inv     |        1481     25.99%     25.99% |        1498     26.29%     52.28% |        1353     23.75%     76.03% |        1366     23.97%    100.00%
system.ruby.L1Cache_Controller.I.Inv::total         5698                      
system.ruby.L1Cache_Controller.S.Load    |       81511      1.88%      1.88% |      102279      2.36%      4.24% |       63933      1.48%      5.72% |     4085178     94.28%    100.00%
system.ruby.L1Cache_Controller.S.Load::total      4332901                      
system.ruby.L1Cache_Controller.S.Store   |        1367     33.27%     33.27% |         938     22.83%     56.10% |         934     22.73%     78.83% |         870     21.17%    100.00%
system.ruby.L1Cache_Controller.S.Store::total         4109                      
system.ruby.L1Cache_Controller.S.L0_Invalidate_Own |       26998     15.68%     15.68% |       31867     18.51%     34.19% |       18519     10.76%     44.95% |       94770     55.05%    100.00%
system.ruby.L1Cache_Controller.S.L0_Invalidate_Own::total       172154                      
system.ruby.L1Cache_Controller.S.L0_Invalidate_Else |         194      7.46%      7.46% |         955     36.73%     44.19% |        1192     45.85%     90.04% |         259      9.96%    100.00%
system.ruby.L1Cache_Controller.S.L0_Invalidate_Else::total         2600                      
system.ruby.L1Cache_Controller.SS.Load   |         705     48.42%     48.42% |         342     23.49%     71.91% |         248     17.03%     88.94% |         161     11.06%    100.00%
system.ruby.L1Cache_Controller.SS.Load::total         1456                      
system.ruby.L1Cache_Controller.SS.Store  |         220     60.61%     60.61% |         100     27.55%     88.15% |          13      3.58%     91.74% |          30      8.26%    100.00%
system.ruby.L1Cache_Controller.SS.Store::total          363                      
system.ruby.L1Cache_Controller.SS.Inv    |         690     12.08%     12.08% |        2394     41.93%     54.01% |        1956     34.26%     88.27% |         670     11.73%    100.00%
system.ruby.L1Cache_Controller.SS.Inv::total         5710                      
system.ruby.L1Cache_Controller.SS.L1_Replacement |       27863     15.91%     15.91% |       32632     18.63%     34.54% |       19362     11.05%     45.60% |       95286     54.40%    100.00%
system.ruby.L1Cache_Controller.SS.L1_Replacement::total       175143                      
system.ruby.L1Cache_Controller.E.WriteBack |       42511      8.21%      8.21% |       50333      9.72%     17.94% |       20663      3.99%     21.93% |      404128     78.07%    100.00%
system.ruby.L1Cache_Controller.E.WriteBack::total       517635                      
system.ruby.L1Cache_Controller.E.L0_Invalidate_Own |         602      0.96%      0.96% |         697      1.12%      2.08% |         324      0.52%      2.60% |       60761     97.40%    100.00%
system.ruby.L1Cache_Controller.E.L0_Invalidate_Own::total        62384                      
system.ruby.L1Cache_Controller.E.L0_Invalidate_Else |          83     24.70%     24.70% |         134     39.88%     64.58% |          51     15.18%     79.76% |          68     20.24%    100.00%
system.ruby.L1Cache_Controller.E.L0_Invalidate_Else::total          336                      
system.ruby.L1Cache_Controller.EE.Inv    |           0      0.00%      0.00% |           0      0.00%      0.00% |           2     50.00%     50.00% |           2     50.00%    100.00%
system.ruby.L1Cache_Controller.EE.Inv::total            4                      
system.ruby.L1Cache_Controller.EE.L1_Replacement |         489      0.79%      0.79% |         575      0.93%      1.71% |         298      0.48%      2.19% |       60714     97.81%    100.00%
system.ruby.L1Cache_Controller.EE.L1_Replacement::total        62076                      
system.ruby.L1Cache_Controller.EE.Fwd_GETX |           1     10.00%     10.00% |           5     50.00%     60.00% |           3     30.00%     90.00% |           1     10.00%    100.00%
system.ruby.L1Cache_Controller.EE.Fwd_GETX::total           10                      
system.ruby.L1Cache_Controller.EE.Fwd_GETS |          61     27.73%     27.73% |          86     39.09%     66.82% |          27     12.27%     79.09% |          46     20.91%    100.00%
system.ruby.L1Cache_Controller.EE.Fwd_GETS::total          220                      
system.ruby.L1Cache_Controller.M.WriteBack |      108863      0.61%      0.61% |      775336      4.34%      4.94% |       59033      0.33%      5.27% |    16939455     94.73%    100.00%
system.ruby.L1Cache_Controller.M.WriteBack::total     17882687                      
system.ruby.L1Cache_Controller.M.L0_Invalidate_Own |        1719      5.39%      5.39% |        2225      6.98%     12.37% |         577      1.81%     14.17% |       27374     85.83%    100.00%
system.ruby.L1Cache_Controller.M.L0_Invalidate_Own::total        31895                      
system.ruby.L1Cache_Controller.M.L0_Invalidate_Else |         649     38.91%     38.91% |         476     28.54%     67.45% |         268     16.07%     83.51% |         275     16.49%    100.00%
system.ruby.L1Cache_Controller.M.L0_Invalidate_Else::total         1668                      
system.ruby.L1Cache_Controller.MM.Load   |       73999      0.42%      0.42% |      703688      4.04%      4.46% |       34782      0.20%      4.66% |    16611111     95.34%    100.00%
system.ruby.L1Cache_Controller.MM.Load::total     17423580                      
system.ruby.L1Cache_Controller.MM.Store  |       21416      5.39%      5.39% |       50902     12.82%     18.21% |       13957      3.52%     21.73% |      310784     78.27%    100.00%
system.ruby.L1Cache_Controller.MM.Store::total       397059                      
system.ruby.L1Cache_Controller.MM.Inv    |         112     25.57%     25.57% |          87     19.86%     45.43% |          89     20.32%     65.75% |         150     34.25%    100.00%
system.ruby.L1Cache_Controller.MM.Inv::total          438                      
system.ruby.L1Cache_Controller.MM.L1_Replacement |       55518      9.19%      9.19% |       70894     11.74%     20.93% |       29399      4.87%     25.80% |      448140     74.20%    100.00%
system.ruby.L1Cache_Controller.MM.L1_Replacement::total       603951                      
system.ruby.L1Cache_Controller.MM.Fwd_GETX |         566     29.01%     29.01% |         753     38.60%     67.61% |         340     17.43%     85.03% |         292     14.97%    100.00%
system.ruby.L1Cache_Controller.MM.Fwd_GETX::total         1951                      
system.ruby.L1Cache_Controller.MM.Fwd_GETS |        2143     29.22%     29.22% |        2594     35.37%     64.59% |        1524     20.78%     85.37% |        1073     14.63%    100.00%
system.ruby.L1Cache_Controller.MM.Fwd_GETS::total         7334                      
system.ruby.L1Cache_Controller.IS.Data_Exclusive |       43202      7.44%      7.44% |       51141      8.81%     16.26% |       21053      3.63%     19.88% |      464956     80.12%    100.00%
system.ruby.L1Cache_Controller.IS.Data_Exclusive::total       580352                      
system.ruby.L1Cache_Controller.IS.DataS_fromL1 |        1450     19.20%     19.20% |        2187     28.95%     48.15% |        2100     27.80%     75.95% |        1817     24.05%    100.00%
system.ruby.L1Cache_Controller.IS.DataS_fromL1::total         7554                      
system.ruby.L1Cache_Controller.IS.Data_all_Acks |       26272     15.43%     15.43% |       31523     18.51%     33.95% |       18321     10.76%     44.71% |       94143     55.29%    100.00%
system.ruby.L1Cache_Controller.IS.Data_all_Acks::total       170259                      
system.ruby.L1Cache_Controller.IM.Data   |         412     38.11%     38.11% |         333     30.80%     68.92% |         160     14.80%     83.72% |         176     16.28%    100.00%
system.ruby.L1Cache_Controller.IM.Data::total         1081                      
system.ruby.L1Cache_Controller.IM.Data_all_Acks |       13822     15.35%     15.35% |       22067     24.50%     39.85% |       10046     11.16%     51.01% |       44122     48.99%    100.00%
system.ruby.L1Cache_Controller.IM.Data_all_Acks::total        90057                      
system.ruby.L1Cache_Controller.SM.Inv    |           0      0.00%      0.00% |           2     66.67%     66.67% |           1     33.33%    100.00% |           0      0.00%    100.00%
system.ruby.L1Cache_Controller.SM.Inv::total            3                      
system.ruby.L1Cache_Controller.SM.Ack    |        3445     47.79%     47.79% |        1520     21.08%     68.87% |        1117     15.49%     84.37% |        1127     15.63%    100.00%
system.ruby.L1Cache_Controller.SM.Ack::total         7209                      
system.ruby.L1Cache_Controller.SM.Ack_all |        1999     36.02%     36.02% |        1369     24.67%     60.68% |        1106     19.93%     80.61% |        1076     19.39%    100.00%
system.ruby.L1Cache_Controller.SM.Ack_all::total         5550                      
system.ruby.L1Cache_Controller.M_I.WB_Ack |       56007      8.41%      8.41% |       71469     10.73%     19.14% |       29697      4.46%     23.60% |      508854     76.40%    100.00%
system.ruby.L1Cache_Controller.M_I.WB_Ack::total       666027                      
system.ruby.L1Cache_Controller.S_IL0.Store |           0      0.00%      0.00% |           1    100.00%    100.00% |           0      0.00%    100.00% |           0      0.00%    100.00%
system.ruby.L1Cache_Controller.S_IL0.Store::total            1                      
system.ruby.L1Cache_Controller.S_IL0.L0_Invalidate_Own |       26998     15.68%     15.68% |       31867     18.51%     34.19% |       18519     10.76%     44.95% |       94770     55.05%    100.00%
system.ruby.L1Cache_Controller.S_IL0.L0_Invalidate_Own::total       172154                      
system.ruby.L1Cache_Controller.S_IL0.L0_Invalidate_Else |         194      7.46%      7.46% |         955     36.73%     44.19% |        1192     45.85%     90.04% |         259      9.96%    100.00%
system.ruby.L1Cache_Controller.S_IL0.L0_Invalidate_Else::total         2600                      
system.ruby.L1Cache_Controller.S_IL0.L0_Ack |       27192     15.56%     15.56% |       32822     18.78%     34.34% |       19711     11.28%     45.62% |       95029     54.38%    100.00%
system.ruby.L1Cache_Controller.S_IL0.L0_Ack::total       174754                      
system.ruby.L1Cache_Controller.E_IL0.WriteBack |           0      0.00%      0.00% |           1    100.00%    100.00% |           0      0.00%    100.00% |           0      0.00%    100.00%
system.ruby.L1Cache_Controller.E_IL0.WriteBack::total            1                      
system.ruby.L1Cache_Controller.E_IL0.L0_DataAck |         134     32.76%     32.76% |         164     40.10%     72.86% |          45     11.00%     83.86% |          66     16.14%    100.00%
system.ruby.L1Cache_Controller.E_IL0.L0_DataAck::total          409                      
system.ruby.L1Cache_Controller.E_IL0.L0_Invalidate_Own |         602      0.96%      0.96% |         697      1.12%      2.08% |         324      0.52%      2.60% |       60761     97.40%    100.00%
system.ruby.L1Cache_Controller.E_IL0.L0_Invalidate_Own::total        62384                      
system.ruby.L1Cache_Controller.E_IL0.L0_Invalidate_Else |          83     24.70%     24.70% |         134     39.88%     64.58% |          51     15.18%     79.76% |          68     20.24%    100.00%
system.ruby.L1Cache_Controller.E_IL0.L0_Invalidate_Else::total          336                      
system.ruby.L1Cache_Controller.E_IL0.L0_Ack |         551      0.88%      0.88% |         666      1.07%      1.95% |         330      0.53%      2.48% |       60763     97.52%    100.00%
system.ruby.L1Cache_Controller.E_IL0.L0_Ack::total        62310                      
system.ruby.L1Cache_Controller.M_IL0.L0_DataAck |        1435     32.42%     32.42% |        1620     36.60%     69.02% |         554     12.52%     81.54% |         817     18.46%    100.00%
system.ruby.L1Cache_Controller.M_IL0.L0_DataAck::total         4426                      
system.ruby.L1Cache_Controller.M_IL0.L0_Invalidate_Own |        1719      5.39%      5.39% |        2225      6.98%     12.37% |         577      1.81%     14.17% |       27374     85.83%    100.00%
system.ruby.L1Cache_Controller.M_IL0.L0_Invalidate_Own::total        31895                      
system.ruby.L1Cache_Controller.M_IL0.L0_Invalidate_Else |         649     38.91%     38.91% |         476     28.54%     67.45% |         268     16.07%     83.51% |         275     16.49%    100.00%
system.ruby.L1Cache_Controller.M_IL0.L0_Invalidate_Else::total         1668                      
system.ruby.L1Cache_Controller.M_IL0.L0_Ack |         933      3.20%      3.20% |        1081      3.71%      6.91% |         291      1.00%      7.91% |       26832     92.09%    100.00%
system.ruby.L1Cache_Controller.M_IL0.L0_Ack::total        29137                      
system.ruby.L1Cache_Controller.MM_IL0.Fwd_GETS |           0      0.00%      0.00% |           1    100.00%    100.00% |           0      0.00%    100.00% |           0      0.00%    100.00%
system.ruby.L1Cache_Controller.MM_IL0.Fwd_GETS::total            1                      
system.ruby.L1Cache_Controller.MM_IL0.L0_Ack |           0      0.00%      0.00% |           1    100.00%    100.00% |           0      0.00%    100.00% |           0      0.00%    100.00%
system.ruby.L1Cache_Controller.MM_IL0.L0_Ack::total            1                      
system.ruby.L2Cache_Controller.L1_GETS         758218      0.00%      0.00%
system.ruby.L2Cache_Controller.L1_GETX          91145      0.00%      0.00%
system.ruby.L2Cache_Controller.L1_UPGRADE         4472      0.00%      0.00%
system.ruby.L2Cache_Controller.L1_PUTX         666027      0.00%      0.00%
system.ruby.L2Cache_Controller.L2_Replacement        13176      0.00%      0.00%
system.ruby.L2Cache_Controller.L2_Replacement_clean        11402      0.00%      0.00%
system.ruby.L2Cache_Controller.Mem_Data         41929      0.00%      0.00%
system.ruby.L2Cache_Controller.Mem_Ack          24617      0.00%      0.00%
system.ruby.L2Cache_Controller.WB_Data           3588      0.00%      0.00%
system.ruby.L2Cache_Controller.WB_Data_clean         4404      0.00%      0.00%
system.ruby.L2Cache_Controller.Ack               2061      0.00%      0.00%
system.ruby.L2Cache_Controller.Ack_all           1064      0.00%      0.00%
system.ruby.L2Cache_Controller.Unblock           7554      0.00%      0.00%
system.ruby.L2Cache_Controller.Exclusive_Unblock       675960      0.00%      0.00%
system.ruby.L2Cache_Controller.MEM_Inv             78      0.00%      0.00%
system.ruby.L2Cache_Controller.NP.L1_GETS        25567      0.00%      0.00%
system.ruby.L2Cache_Controller.NP.L1_GETX        16362      0.00%      0.00%
system.ruby.L2Cache_Controller.SS.L1_GETS       170233      0.00%      0.00%
system.ruby.L2Cache_Controller.SS.L1_GETX         1081      0.00%      0.00%
system.ruby.L2Cache_Controller.SS.L1_UPGRADE         4469      0.00%      0.00%
system.ruby.L2Cache_Controller.SS.L2_Replacement          139      0.00%      0.00%
system.ruby.L2Cache_Controller.SS.L2_Replacement_clean          921      0.00%      0.00%
system.ruby.L2Cache_Controller.M.L1_GETS       554798      0.00%      0.00%
system.ruby.L2Cache_Controller.M.L1_GETX        71734      0.00%      0.00%
system.ruby.L2Cache_Controller.M.L2_Replacement        12874      0.00%      0.00%
system.ruby.L2Cache_Controller.M.L2_Replacement_clean        10211      0.00%      0.00%
system.ruby.L2Cache_Controller.M.MEM_Inv           30      0.00%      0.00%
system.ruby.L2Cache_Controller.MT.L1_GETS         7554      0.00%      0.00%
system.ruby.L2Cache_Controller.MT.L1_GETX         1961      0.00%      0.00%
system.ruby.L2Cache_Controller.MT.L1_PUTX       666027      0.00%      0.00%
system.ruby.L2Cache_Controller.MT.L2_Replacement          163      0.00%      0.00%
system.ruby.L2Cache_Controller.MT.L2_Replacement_clean          270      0.00%      0.00%
system.ruby.L2Cache_Controller.MT.MEM_Inv            9      0.00%      0.00%
system.ruby.L2Cache_Controller.M_I.Mem_Ack        24617      0.00%      0.00%
system.ruby.L2Cache_Controller.M_I.MEM_Inv           30      0.00%      0.00%
system.ruby.L2Cache_Controller.MT_I.WB_Data          147      0.00%      0.00%
system.ruby.L2Cache_Controller.MT_I.WB_Data_clean           24      0.00%      0.00%
system.ruby.L2Cache_Controller.MT_I.Ack_all            1      0.00%      0.00%
system.ruby.L2Cache_Controller.MT_I.MEM_Inv            9      0.00%      0.00%
system.ruby.L2Cache_Controller.MCT_I.WB_Data          152      0.00%      0.00%
system.ruby.L2Cache_Controller.MCT_I.WB_Data_clean          115      0.00%      0.00%
system.ruby.L2Cache_Controller.MCT_I.Ack_all            3      0.00%      0.00%
system.ruby.L2Cache_Controller.I_I.Ack           1910      0.00%      0.00%
system.ruby.L2Cache_Controller.I_I.Ack_all          921      0.00%      0.00%
system.ruby.L2Cache_Controller.S_I.Ack            151      0.00%      0.00%
system.ruby.L2Cache_Controller.S_I.Ack_all          139      0.00%      0.00%
system.ruby.L2Cache_Controller.ISS.L1_GETS           13      0.00%      0.00%
system.ruby.L2Cache_Controller.ISS.Mem_Data        25554      0.00%      0.00%
system.ruby.L2Cache_Controller.IS.Mem_Data           13      0.00%      0.00%
system.ruby.L2Cache_Controller.IM.Mem_Data        16362      0.00%      0.00%
system.ruby.L2Cache_Controller.SS_MB.L1_GETS           28      0.00%      0.00%
system.ruby.L2Cache_Controller.SS_MB.L1_GETX            2      0.00%      0.00%
system.ruby.L2Cache_Controller.SS_MB.L1_UPGRADE            3      0.00%      0.00%
system.ruby.L2Cache_Controller.SS_MB.Exclusive_Unblock         5550      0.00%      0.00%
system.ruby.L2Cache_Controller.MT_MB.L1_GETS           20      0.00%      0.00%
system.ruby.L2Cache_Controller.MT_MB.L1_GETX            4      0.00%      0.00%
system.ruby.L2Cache_Controller.MT_MB.Exclusive_Unblock       670410      0.00%      0.00%
system.ruby.L2Cache_Controller.MT_IIB.L1_GETS            5      0.00%      0.00%
system.ruby.L2Cache_Controller.MT_IIB.L1_GETX            1      0.00%      0.00%
system.ruby.L2Cache_Controller.MT_IIB.WB_Data         3284      0.00%      0.00%
system.ruby.L2Cache_Controller.MT_IIB.WB_Data_clean         4263      0.00%      0.00%
system.ruby.L2Cache_Controller.MT_IIB.Unblock            7      0.00%      0.00%
system.ruby.L2Cache_Controller.MT_IB.WB_Data            5      0.00%      0.00%
system.ruby.L2Cache_Controller.MT_IB.WB_Data_clean            2      0.00%      0.00%
system.ruby.L2Cache_Controller.MT_SB.Unblock         7547      0.00%      0.00%

---------- End Simulation Statistics   ----------
