
---------- Begin Simulation Statistics ----------
sim_seconds                                  3.729067                       # Number of seconds simulated
sim_ticks                                3729067368000                       # Number of ticks simulated
final_tick                               54968735921001                       # Number of ticks from beginning of simulation (restored from checkpoints and never reset)
sim_freq                                 1000000000000                       # Frequency of simulated ticks
host_inst_rate                                 146338                       # Simulator instruction rate (inst/s)
host_op_rate                                   249231                       # Simulator op (including micro ops) rate (op/s)
host_tick_rate                              270014255                       # Simulator tick rate (ticks/s)
host_mem_usage                                1870608                       # Number of bytes of host memory used
host_seconds                                 13810.63                       # Real time elapsed on the host
sim_insts                                  2021023741                       # Number of instructions simulated
sim_ops                                    3442035495                       # Number of ops (including micro ops) simulated
system.voltage_domain.voltage                       1                       # Voltage in Volts
system.clk_domain.clock                          1000                       # Clock period in ticks
system.mem_ctrls.bytes_read::ruby.dir_cntrl0    162530176                       # Number of bytes read from this memory
system.mem_ctrls.bytes_read::total          162530176                       # Number of bytes read from this memory
system.mem_ctrls.bytes_written::ruby.dir_cntrl0    162665856                       # Number of bytes written to this memory
system.mem_ctrls.bytes_written::total       162665856                       # Number of bytes written to this memory
system.mem_ctrls.num_reads::ruby.dir_cntrl0      2539534                       # Number of read requests responded to by this memory
system.mem_ctrls.num_reads::total             2539534                       # Number of read requests responded to by this memory
system.mem_ctrls.num_writes::ruby.dir_cntrl0      2541654                       # Number of write requests responded to by this memory
system.mem_ctrls.num_writes::total            2541654                       # Number of write requests responded to by this memory
system.mem_ctrls.bw_read::ruby.dir_cntrl0     43584671                       # Total read bandwidth from this memory (bytes/s)
system.mem_ctrls.bw_read::total              43584671                       # Total read bandwidth from this memory (bytes/s)
system.mem_ctrls.bw_write::ruby.dir_cntrl0     43621056                       # Write bandwidth from this memory (bytes/s)
system.mem_ctrls.bw_write::total             43621056                       # Write bandwidth from this memory (bytes/s)
system.mem_ctrls.bw_total::ruby.dir_cntrl0     87205727                       # Total bandwidth to/from this memory (bytes/s)
system.mem_ctrls.bw_total::total             87205727                       # Total bandwidth to/from this memory (bytes/s)
system.mem_ctrls.readReqs                     2539534                       # Number of read requests accepted
system.mem_ctrls.writeReqs                    2541654                       # Number of write requests accepted
system.mem_ctrls.readBursts                   2539534                       # Number of DRAM read bursts, including those serviced by the write queue
system.mem_ctrls.writeBursts                  2541654                       # Number of DRAM write bursts, including those merged in the write queue
system.mem_ctrls.bytesReadDRAM              143873280                       # Total number of bytes read from DRAM
system.mem_ctrls.bytesReadWrQ                18656896                       # Total number of bytes read from write queue
system.mem_ctrls.bytesWritten               159160064                       # Total number of bytes written to DRAM
system.mem_ctrls.bytesReadSys               162530176                       # Total read bytes from the system interface side
system.mem_ctrls.bytesWrittenSys            162665856                       # Total written bytes from the system interface side
system.mem_ctrls.servicedByWrQ                 291514                       # Number of DRAM read bursts serviced by the write queue
system.mem_ctrls.mergedWrBursts                 54788                       # Number of DRAM write bursts merged with an existing one
system.mem_ctrls.neitherReadNorWriteReqs            0                       # Number of requests that are neither read nor write
system.mem_ctrls.perBankRdBursts::0             78822                       # Per bank write bursts
system.mem_ctrls.perBankRdBursts::1            778882                       # Per bank write bursts
system.mem_ctrls.perBankRdBursts::2            110415                       # Per bank write bursts
system.mem_ctrls.perBankRdBursts::3            147981                       # Per bank write bursts
system.mem_ctrls.perBankRdBursts::4            235522                       # Per bank write bursts
system.mem_ctrls.perBankRdBursts::5             33548                       # Per bank write bursts
system.mem_ctrls.perBankRdBursts::6              8194                       # Per bank write bursts
system.mem_ctrls.perBankRdBursts::7              8670                       # Per bank write bursts
system.mem_ctrls.perBankRdBursts::8             69277                       # Per bank write bursts
system.mem_ctrls.perBankRdBursts::9            244568                       # Per bank write bursts
system.mem_ctrls.perBankRdBursts::10            80220                       # Per bank write bursts
system.mem_ctrls.perBankRdBursts::11           189667                       # Per bank write bursts
system.mem_ctrls.perBankRdBursts::12           151447                       # Per bank write bursts
system.mem_ctrls.perBankRdBursts::13            76581                       # Per bank write bursts
system.mem_ctrls.perBankRdBursts::14            10717                       # Per bank write bursts
system.mem_ctrls.perBankRdBursts::15            23509                       # Per bank write bursts
system.mem_ctrls.perBankWrBursts::0             89641                       # Per bank write bursts
system.mem_ctrls.perBankWrBursts::1            863408                       # Per bank write bursts
system.mem_ctrls.perBankWrBursts::2            113135                       # Per bank write bursts
system.mem_ctrls.perBankWrBursts::3            162386                       # Per bank write bursts
system.mem_ctrls.perBankWrBursts::4            264092                       # Per bank write bursts
system.mem_ctrls.perBankWrBursts::5             35315                       # Per bank write bursts
system.mem_ctrls.perBankWrBursts::6              9306                       # Per bank write bursts
system.mem_ctrls.perBankWrBursts::7              9414                       # Per bank write bursts
system.mem_ctrls.perBankWrBursts::8             78485                       # Per bank write bursts
system.mem_ctrls.perBankWrBursts::9            270798                       # Per bank write bursts
system.mem_ctrls.perBankWrBursts::10            83440                       # Per bank write bursts
system.mem_ctrls.perBankWrBursts::11           205522                       # Per bank write bursts
system.mem_ctrls.perBankWrBursts::12           172447                       # Per bank write bursts
system.mem_ctrls.perBankWrBursts::13            93713                       # Per bank write bursts
system.mem_ctrls.perBankWrBursts::14            11129                       # Per bank write bursts
system.mem_ctrls.perBankWrBursts::15            24645                       # Per bank write bursts
system.mem_ctrls.numRdRetry                         0                       # Number of times read queue was full causing retry
system.mem_ctrls.numWrRetry                         0                       # Number of times write queue was full causing retry
system.mem_ctrls.totGap                  3729067372000                       # Total gap between requests
system.mem_ctrls.readPktSize::0                     0                       # Read request sizes (log2)
system.mem_ctrls.readPktSize::1                     0                       # Read request sizes (log2)
system.mem_ctrls.readPktSize::2                     0                       # Read request sizes (log2)
system.mem_ctrls.readPktSize::3                     0                       # Read request sizes (log2)
system.mem_ctrls.readPktSize::4                     0                       # Read request sizes (log2)
system.mem_ctrls.readPktSize::5                     0                       # Read request sizes (log2)
system.mem_ctrls.readPktSize::6               2539534                       # Read request sizes (log2)
system.mem_ctrls.writePktSize::0                    0                       # Write request sizes (log2)
system.mem_ctrls.writePktSize::1                    0                       # Write request sizes (log2)
system.mem_ctrls.writePktSize::2                    0                       # Write request sizes (log2)
system.mem_ctrls.writePktSize::3                    0                       # Write request sizes (log2)
system.mem_ctrls.writePktSize::4                    0                       # Write request sizes (log2)
system.mem_ctrls.writePktSize::5                    0                       # Write request sizes (log2)
system.mem_ctrls.writePktSize::6              2541654                       # Write request sizes (log2)
system.mem_ctrls.rdQLenPdf::0                 2244211                       # What read queue length does an incoming req see
system.mem_ctrls.rdQLenPdf::1                    3798                       # What read queue length does an incoming req see
system.mem_ctrls.rdQLenPdf::2                      11                       # What read queue length does an incoming req see
system.mem_ctrls.rdQLenPdf::3                       0                       # What read queue length does an incoming req see
system.mem_ctrls.rdQLenPdf::4                       0                       # What read queue length does an incoming req see
system.mem_ctrls.rdQLenPdf::5                       0                       # What read queue length does an incoming req see
system.mem_ctrls.rdQLenPdf::6                       0                       # What read queue length does an incoming req see
system.mem_ctrls.rdQLenPdf::7                       0                       # What read queue length does an incoming req see
system.mem_ctrls.rdQLenPdf::8                       0                       # What read queue length does an incoming req see
system.mem_ctrls.rdQLenPdf::9                       0                       # What read queue length does an incoming req see
system.mem_ctrls.rdQLenPdf::10                      0                       # What read queue length does an incoming req see
system.mem_ctrls.rdQLenPdf::11                      0                       # What read queue length does an incoming req see
system.mem_ctrls.rdQLenPdf::12                      0                       # What read queue length does an incoming req see
system.mem_ctrls.rdQLenPdf::13                      0                       # What read queue length does an incoming req see
system.mem_ctrls.rdQLenPdf::14                      0                       # What read queue length does an incoming req see
system.mem_ctrls.rdQLenPdf::15                      0                       # What read queue length does an incoming req see
system.mem_ctrls.rdQLenPdf::16                      0                       # What read queue length does an incoming req see
system.mem_ctrls.rdQLenPdf::17                      0                       # What read queue length does an incoming req see
system.mem_ctrls.rdQLenPdf::18                      0                       # What read queue length does an incoming req see
system.mem_ctrls.rdQLenPdf::19                      0                       # What read queue length does an incoming req see
system.mem_ctrls.rdQLenPdf::20                      0                       # What read queue length does an incoming req see
system.mem_ctrls.rdQLenPdf::21                      0                       # What read queue length does an incoming req see
system.mem_ctrls.rdQLenPdf::22                      0                       # What read queue length does an incoming req see
system.mem_ctrls.rdQLenPdf::23                      0                       # What read queue length does an incoming req see
system.mem_ctrls.rdQLenPdf::24                      0                       # What read queue length does an incoming req see
system.mem_ctrls.rdQLenPdf::25                      0                       # What read queue length does an incoming req see
system.mem_ctrls.rdQLenPdf::26                      0                       # What read queue length does an incoming req see
system.mem_ctrls.rdQLenPdf::27                      0                       # What read queue length does an incoming req see
system.mem_ctrls.rdQLenPdf::28                      0                       # What read queue length does an incoming req see
system.mem_ctrls.rdQLenPdf::29                      0                       # What read queue length does an incoming req see
system.mem_ctrls.rdQLenPdf::30                      0                       # What read queue length does an incoming req see
system.mem_ctrls.rdQLenPdf::31                      0                       # What read queue length does an incoming req see
system.mem_ctrls.wrQLenPdf::0                       0                       # What write queue length does an incoming req see
system.mem_ctrls.wrQLenPdf::1                       0                       # What write queue length does an incoming req see
system.mem_ctrls.wrQLenPdf::2                       0                       # What write queue length does an incoming req see
system.mem_ctrls.wrQLenPdf::3                       0                       # What write queue length does an incoming req see
system.mem_ctrls.wrQLenPdf::4                       0                       # What write queue length does an incoming req see
system.mem_ctrls.wrQLenPdf::5                       0                       # What write queue length does an incoming req see
system.mem_ctrls.wrQLenPdf::6                       0                       # What write queue length does an incoming req see
system.mem_ctrls.wrQLenPdf::7                       0                       # What write queue length does an incoming req see
system.mem_ctrls.wrQLenPdf::8                       0                       # What write queue length does an incoming req see
system.mem_ctrls.wrQLenPdf::9                       0                       # What write queue length does an incoming req see
system.mem_ctrls.wrQLenPdf::10                      0                       # What write queue length does an incoming req see
system.mem_ctrls.wrQLenPdf::11                      0                       # What write queue length does an incoming req see
system.mem_ctrls.wrQLenPdf::12                      0                       # What write queue length does an incoming req see
system.mem_ctrls.wrQLenPdf::13                      0                       # What write queue length does an incoming req see
system.mem_ctrls.wrQLenPdf::14                      0                       # What write queue length does an incoming req see
system.mem_ctrls.wrQLenPdf::15                  14626                       # What write queue length does an incoming req see
system.mem_ctrls.wrQLenPdf::16                  15827                       # What write queue length does an incoming req see
system.mem_ctrls.wrQLenPdf::17                 149455                       # What write queue length does an incoming req see
system.mem_ctrls.wrQLenPdf::18                 153796                       # What write queue length does an incoming req see
system.mem_ctrls.wrQLenPdf::19                 154019                       # What write queue length does an incoming req see
system.mem_ctrls.wrQLenPdf::20                 154071                       # What write queue length does an incoming req see
system.mem_ctrls.wrQLenPdf::21                 154288                       # What write queue length does an incoming req see
system.mem_ctrls.wrQLenPdf::22                 154471                       # What write queue length does an incoming req see
system.mem_ctrls.wrQLenPdf::23                 154493                       # What write queue length does an incoming req see
system.mem_ctrls.wrQLenPdf::24                 154232                       # What write queue length does an incoming req see
system.mem_ctrls.wrQLenPdf::25                 153876                       # What write queue length does an incoming req see
system.mem_ctrls.wrQLenPdf::26                 153533                       # What write queue length does an incoming req see
system.mem_ctrls.wrQLenPdf::27                 153374                       # What write queue length does an incoming req see
system.mem_ctrls.wrQLenPdf::28                 153311                       # What write queue length does an incoming req see
system.mem_ctrls.wrQLenPdf::29                 153275                       # What write queue length does an incoming req see
system.mem_ctrls.wrQLenPdf::30                 153248                       # What write queue length does an incoming req see
system.mem_ctrls.wrQLenPdf::31                 153220                       # What write queue length does an incoming req see
system.mem_ctrls.wrQLenPdf::32                 153210                       # What write queue length does an incoming req see
system.mem_ctrls.wrQLenPdf::33                    363                       # What write queue length does an incoming req see
system.mem_ctrls.wrQLenPdf::34                    103                       # What write queue length does an incoming req see
system.mem_ctrls.wrQLenPdf::35                     36                       # What write queue length does an incoming req see
system.mem_ctrls.wrQLenPdf::36                     12                       # What write queue length does an incoming req see
system.mem_ctrls.wrQLenPdf::37                      7                       # What write queue length does an incoming req see
system.mem_ctrls.wrQLenPdf::38                      6                       # What write queue length does an incoming req see
system.mem_ctrls.wrQLenPdf::39                      3                       # What write queue length does an incoming req see
system.mem_ctrls.wrQLenPdf::40                      3                       # What write queue length does an incoming req see
system.mem_ctrls.wrQLenPdf::41                      4                       # What write queue length does an incoming req see
system.mem_ctrls.wrQLenPdf::42                      2                       # What write queue length does an incoming req see
system.mem_ctrls.wrQLenPdf::43                      2                       # What write queue length does an incoming req see
system.mem_ctrls.wrQLenPdf::44                      0                       # What write queue length does an incoming req see
system.mem_ctrls.wrQLenPdf::45                      0                       # What write queue length does an incoming req see
system.mem_ctrls.wrQLenPdf::46                      0                       # What write queue length does an incoming req see
system.mem_ctrls.wrQLenPdf::47                      0                       # What write queue length does an incoming req see
system.mem_ctrls.wrQLenPdf::48                      0                       # What write queue length does an incoming req see
system.mem_ctrls.wrQLenPdf::49                      0                       # What write queue length does an incoming req see
system.mem_ctrls.wrQLenPdf::50                      0                       # What write queue length does an incoming req see
system.mem_ctrls.wrQLenPdf::51                      0                       # What write queue length does an incoming req see
system.mem_ctrls.wrQLenPdf::52                      0                       # What write queue length does an incoming req see
system.mem_ctrls.wrQLenPdf::53                      0                       # What write queue length does an incoming req see
system.mem_ctrls.wrQLenPdf::54                      0                       # What write queue length does an incoming req see
system.mem_ctrls.wrQLenPdf::55                      0                       # What write queue length does an incoming req see
system.mem_ctrls.wrQLenPdf::56                      0                       # What write queue length does an incoming req see
system.mem_ctrls.wrQLenPdf::57                      0                       # What write queue length does an incoming req see
system.mem_ctrls.wrQLenPdf::58                      0                       # What write queue length does an incoming req see
system.mem_ctrls.wrQLenPdf::59                      0                       # What write queue length does an incoming req see
system.mem_ctrls.wrQLenPdf::60                      0                       # What write queue length does an incoming req see
system.mem_ctrls.wrQLenPdf::61                      0                       # What write queue length does an incoming req see
system.mem_ctrls.wrQLenPdf::62                      0                       # What write queue length does an incoming req see
system.mem_ctrls.wrQLenPdf::63                      0                       # What write queue length does an incoming req see
system.mem_ctrls.bytesPerActivate::samples      1661540                       # Bytes accessed per row activation
system.mem_ctrls.bytesPerActivate::mean    182.381203                       # Bytes accessed per row activation
system.mem_ctrls.bytesPerActivate::gmean   132.949601                       # Bytes accessed per row activation
system.mem_ctrls.bytesPerActivate::stdev   168.205832                       # Bytes accessed per row activation
system.mem_ctrls.bytesPerActivate::0-127       709591     42.71%     42.71% # Bytes accessed per row activation
system.mem_ctrls.bytesPerActivate::128-255       512297     30.83%     73.54% # Bytes accessed per row activation
system.mem_ctrls.bytesPerActivate::256-383       219761     13.23%     86.77% # Bytes accessed per row activation
system.mem_ctrls.bytesPerActivate::384-511       106664      6.42%     93.19% # Bytes accessed per row activation
system.mem_ctrls.bytesPerActivate::512-639        58608      3.53%     96.71% # Bytes accessed per row activation
system.mem_ctrls.bytesPerActivate::640-767        25717      1.55%     98.26% # Bytes accessed per row activation
system.mem_ctrls.bytesPerActivate::768-895        14627      0.88%     99.14% # Bytes accessed per row activation
system.mem_ctrls.bytesPerActivate::896-1023         7117      0.43%     99.57% # Bytes accessed per row activation
system.mem_ctrls.bytesPerActivate::1024-1151         7158      0.43%    100.00% # Bytes accessed per row activation
system.mem_ctrls.bytesPerActivate::total      1661540                       # Bytes accessed per row activation
system.mem_ctrls.rdPerTurnAround::samples       153205                       # Reads before turning the bus around for writes
system.mem_ctrls.rdPerTurnAround::mean      14.673333                       # Reads before turning the bus around for writes
system.mem_ctrls.rdPerTurnAround::stdev      3.977001                       # Reads before turning the bus around for writes
system.mem_ctrls.rdPerTurnAround::0-7            3424      2.23%      2.23% # Reads before turning the bus around for writes
system.mem_ctrls.rdPerTurnAround::8-15          86282     56.32%     58.55% # Reads before turning the bus around for writes
system.mem_ctrls.rdPerTurnAround::16-23         62138     40.56%     99.11% # Reads before turning the bus around for writes
system.mem_ctrls.rdPerTurnAround::24-31           316      0.21%     99.32% # Reads before turning the bus around for writes
system.mem_ctrls.rdPerTurnAround::32-39           171      0.11%     99.43% # Reads before turning the bus around for writes
system.mem_ctrls.rdPerTurnAround::40-47           232      0.15%     99.58% # Reads before turning the bus around for writes
system.mem_ctrls.rdPerTurnAround::48-55           300      0.20%     99.78% # Reads before turning the bus around for writes
system.mem_ctrls.rdPerTurnAround::56-63           272      0.18%     99.95% # Reads before turning the bus around for writes
system.mem_ctrls.rdPerTurnAround::64-71            51      0.03%     99.99% # Reads before turning the bus around for writes
system.mem_ctrls.rdPerTurnAround::72-79             8      0.01%     99.99% # Reads before turning the bus around for writes
system.mem_ctrls.rdPerTurnAround::80-87             6      0.00%    100.00% # Reads before turning the bus around for writes
system.mem_ctrls.rdPerTurnAround::88-95             1      0.00%    100.00% # Reads before turning the bus around for writes
system.mem_ctrls.rdPerTurnAround::96-103            3      0.00%    100.00% # Reads before turning the bus around for writes
system.mem_ctrls.rdPerTurnAround::160-167            1      0.00%    100.00% # Reads before turning the bus around for writes
system.mem_ctrls.rdPerTurnAround::total        153205                       # Reads before turning the bus around for writes
system.mem_ctrls.wrPerTurnAround::samples       153205                       # Writes before turning the bus around for reads
system.mem_ctrls.wrPerTurnAround::mean      16.232342                       # Writes before turning the bus around for reads
system.mem_ctrls.wrPerTurnAround::gmean     16.217504                       # Writes before turning the bus around for reads
system.mem_ctrls.wrPerTurnAround::stdev      0.729155                       # Writes before turning the bus around for reads
system.mem_ctrls.wrPerTurnAround::16           137484     89.74%     89.74% # Writes before turning the bus around for reads
system.mem_ctrls.wrPerTurnAround::17              553      0.36%     90.10% # Writes before turning the bus around for reads
system.mem_ctrls.wrPerTurnAround::18            11609      7.58%     97.68% # Writes before turning the bus around for reads
system.mem_ctrls.wrPerTurnAround::19             2838      1.85%     99.53% # Writes before turning the bus around for reads
system.mem_ctrls.wrPerTurnAround::20              562      0.37%     99.90% # Writes before turning the bus around for reads
system.mem_ctrls.wrPerTurnAround::21               76      0.05%     99.95% # Writes before turning the bus around for reads
system.mem_ctrls.wrPerTurnAround::22               21      0.01%     99.96% # Writes before turning the bus around for reads
system.mem_ctrls.wrPerTurnAround::23               11      0.01%     99.97% # Writes before turning the bus around for reads
system.mem_ctrls.wrPerTurnAround::24               29      0.02%     99.99% # Writes before turning the bus around for reads
system.mem_ctrls.wrPerTurnAround::25                8      0.01%     99.99% # Writes before turning the bus around for reads
system.mem_ctrls.wrPerTurnAround::26                5      0.00%     99.99% # Writes before turning the bus around for reads
system.mem_ctrls.wrPerTurnAround::27                2      0.00%    100.00% # Writes before turning the bus around for reads
system.mem_ctrls.wrPerTurnAround::28                5      0.00%    100.00% # Writes before turning the bus around for reads
system.mem_ctrls.wrPerTurnAround::32                1      0.00%    100.00% # Writes before turning the bus around for reads
system.mem_ctrls.wrPerTurnAround::44                1      0.00%    100.00% # Writes before turning the bus around for reads
system.mem_ctrls.wrPerTurnAround::total        153205                       # Writes before turning the bus around for reads
system.mem_ctrls.totQLat                  39345727208                       # Total ticks spent queuing
system.mem_ctrls.totMemAccLat             81496102208                       # Total ticks spent from burst creation until serviced by the DRAM
system.mem_ctrls.totBusLat                11240100000                       # Total ticks spent in databus transfers
system.mem_ctrls.avgQLat                     17502.39                       # Average queueing delay per DRAM burst
system.mem_ctrls.avgBusLat                    5000.00                       # Average bus latency per DRAM burst
system.mem_ctrls.avgMemAccLat                36252.39                       # Average memory access latency per DRAM burst
system.mem_ctrls.avgRdBW                        38.58                       # Average DRAM read bandwidth in MiByte/s
system.mem_ctrls.avgWrBW                        42.68                       # Average achieved write bandwidth in MiByte/s
system.mem_ctrls.avgRdBWSys                     43.58                       # Average system read bandwidth in MiByte/s
system.mem_ctrls.avgWrBWSys                     43.62                       # Average system write bandwidth in MiByte/s
system.mem_ctrls.peakBW                      12800.00                       # Theoretical peak bandwidth in MiByte/s
system.mem_ctrls.busUtil                         0.63                       # Data bus utilization in percentage
system.mem_ctrls.busUtilRead                     0.30                       # Data bus utilization in percentage for reads
system.mem_ctrls.busUtilWrite                    0.33                       # Data bus utilization in percentage for writes
system.mem_ctrls.avgRdQLen                       1.00                       # Average read queue length when enqueuing
system.mem_ctrls.avgWrQLen                      25.43                       # Average write queue length when enqueuing
system.mem_ctrls.readRowHits                  1330875                       # Number of row buffer hits during reads
system.mem_ctrls.writeRowHits                 1742484                       # Number of row buffer hits during writes
system.mem_ctrls.readRowHitRate                 59.20                       # Row buffer hit rate for reads
system.mem_ctrls.writeRowHitRate                70.07                       # Row buffer hit rate for writes
system.mem_ctrls.avgGap                     733896.75                       # Average gap between requests
system.mem_ctrls.pageHitRate                    64.91                       # Row buffer hit rate, read and write combined
system.mem_ctrls_0.actEnergy               7858015200                       # Energy for activate commands per rank (pJ)
system.mem_ctrls_0.preEnergy               4287607500                       # Energy for precharge commands per rank (pJ)
system.mem_ctrls_0.readEnergy             11084213400                       # Energy for read commands per rank (pJ)
system.mem_ctrls_0.writeEnergy            10133514720                       # Energy for write commands per rank (pJ)
system.mem_ctrls_0.refreshEnergy         243857571360                       # Energy for refresh commands per rank (pJ)
system.mem_ctrls_0.actBackEnergy         976173555735                       # Energy for active background per rank (pJ)
system.mem_ctrls_0.preBackEnergy         1383839718750                       # Energy for precharge background per rank (pJ)
system.mem_ctrls_0.totalEnergy           2637234196665                       # Total energy per rank (pJ)
system.mem_ctrls_0.averagePower            706.360294                       # Core power per rank (mW)
system.mem_ctrls_0.memoryStateTime::IDLE 2295023034500                       # Time in different power states
system.mem_ctrls_0.memoryStateTime::REF  124521800000                       # Time in different power states
system.mem_ctrls_0.memoryStateTime::PRE_PDN            0                       # Time in different power states
system.mem_ctrls_0.memoryStateTime::ACT  1309524490250                       # Time in different power states
system.mem_ctrls_0.memoryStateTime::ACT_PDN            0                       # Time in different power states
system.mem_ctrls_1.actEnergy               4896770760                       # Energy for activate commands per rank (pJ)
system.mem_ctrls_1.preEnergy               2671849125                       # Energy for precharge commands per rank (pJ)
system.mem_ctrls_1.readEnergy              6703343400                       # Energy for read commands per rank (pJ)
system.mem_ctrls_1.writeEnergy             6168817440                       # Energy for write commands per rank (pJ)
system.mem_ctrls_1.refreshEnergy         243857571360                       # Energy for refresh commands per rank (pJ)
system.mem_ctrls_1.actBackEnergy         620416757925                       # Energy for active background per rank (pJ)
system.mem_ctrls_1.preBackEnergy         1695907085250                       # Energy for precharge background per rank (pJ)
system.mem_ctrls_1.totalEnergy           2580622195260                       # Total energy per rank (pJ)
system.mem_ctrls_1.averagePower            691.197261                       # Core power per rank (mW)
system.mem_ctrls_1.memoryStateTime::IDLE 2816668118252                       # Time in different power states
system.mem_ctrls_1.memoryStateTime::REF  124521800000                       # Time in different power states
system.mem_ctrls_1.memoryStateTime::PRE_PDN            0                       # Time in different power states
system.mem_ctrls_1.memoryStateTime::ACT  787878706998                       # Time in different power states
system.mem_ctrls_1.memoryStateTime::ACT_PDN            0                       # Time in different power states
system.cpu_voltage_domain.voltage                   1                       # Voltage in Volts
system.cpu_clk_domain.clock                       500                       # Clock period in ticks
system.cpu0.apic_clk_domain.clock                8000                       # Clock period in ticks
system.cpu0.numCycles                      7456267973                       # number of cpu cycles simulated
system.cpu0.numWorkItemsStarted                     0                       # number of work items this cpu started
system.cpu0.numWorkItemsCompleted                   0                       # number of work items this cpu completed
system.cpu0.kern.inst.arm                           0                       # number of arm instructions executed
system.cpu0.kern.inst.quiesce                       0                       # number of quiesce instructions executed
system.cpu0.committedInsts                   19621354                       # Number of instructions committed
system.cpu0.committedOps                     34827530                       # Number of ops (including micro ops) committed
system.cpu0.num_int_alu_accesses             29422931                       # Number of integer alu accesses
system.cpu0.num_fp_alu_accesses               8399337                       # Number of float alu accesses
system.cpu0.num_func_calls                     618911                       # number of times a function call or return occured
system.cpu0.num_conditional_control_insts      2070877                       # number of instructions that are conditional controls
system.cpu0.num_int_insts                    29422931                       # number of integer instructions
system.cpu0.num_fp_insts                      8399337                       # number of float instructions
system.cpu0.num_int_register_reads           56820791                       # number of times the integer registers were read
system.cpu0.num_int_register_writes          22415229                       # number of times the integer registers were written
system.cpu0.num_fp_register_reads            14064330                       # number of times the floating registers were read
system.cpu0.num_fp_register_writes            7474281                       # number of times the floating registers were written
system.cpu0.num_cc_register_reads            14285724                       # number of times the CC registers were read
system.cpu0.num_cc_register_writes           10510393                       # number of times the CC registers were written
system.cpu0.num_mem_refs                      7797068                       # number of memory refs
system.cpu0.num_load_insts                    5783860                       # Number of load instructions
system.cpu0.num_store_insts                   2013208                       # Number of store instructions
system.cpu0.num_idle_cycles              7370931435.991910                       # Number of idle cycles
system.cpu0.num_busy_cycles              85336537.008091                       # Number of busy cycles
system.cpu0.not_idle_fraction                0.011445                       # Percentage of non-idle cycles
system.cpu0.idle_fraction                    0.988555                       # Percentage of idle cycles
system.cpu0.Branches                          2847668                       # Number of branches fetched
system.cpu0.op_class::No_OpClass               124650      0.36%      0.36% # Class of executed instruction
system.cpu0.op_class::IntAlu                 23034232     66.14%     66.50% # Class of executed instruction
system.cpu0.op_class::IntMult                  214095      0.61%     67.11% # Class of executed instruction
system.cpu0.op_class::IntDiv                    39322      0.11%     67.22% # Class of executed instruction
system.cpu0.op_class::FloatAdd                3618219     10.39%     77.61% # Class of executed instruction
system.cpu0.op_class::FloatCmp                      0      0.00%     77.61% # Class of executed instruction
system.cpu0.op_class::FloatCvt                      0      0.00%     77.61% # Class of executed instruction
system.cpu0.op_class::FloatMult                     0      0.00%     77.61% # Class of executed instruction
system.cpu0.op_class::FloatDiv                      0      0.00%     77.61% # Class of executed instruction
system.cpu0.op_class::FloatSqrt                     0      0.00%     77.61% # Class of executed instruction
system.cpu0.op_class::SimdAdd                       0      0.00%     77.61% # Class of executed instruction
system.cpu0.op_class::SimdAddAcc                    0      0.00%     77.61% # Class of executed instruction
system.cpu0.op_class::SimdAlu                       0      0.00%     77.61% # Class of executed instruction
system.cpu0.op_class::SimdCmp                       0      0.00%     77.61% # Class of executed instruction
system.cpu0.op_class::SimdCvt                       0      0.00%     77.61% # Class of executed instruction
system.cpu0.op_class::SimdMisc                      0      0.00%     77.61% # Class of executed instruction
system.cpu0.op_class::SimdMult                      0      0.00%     77.61% # Class of executed instruction
system.cpu0.op_class::SimdMultAcc                   0      0.00%     77.61% # Class of executed instruction
system.cpu0.op_class::SimdShift                     0      0.00%     77.61% # Class of executed instruction
system.cpu0.op_class::SimdShiftAcc                  0      0.00%     77.61% # Class of executed instruction
system.cpu0.op_class::SimdSqrt                      0      0.00%     77.61% # Class of executed instruction
system.cpu0.op_class::SimdFloatAdd                  0      0.00%     77.61% # Class of executed instruction
system.cpu0.op_class::SimdFloatAlu                  0      0.00%     77.61% # Class of executed instruction
system.cpu0.op_class::SimdFloatCmp                  0      0.00%     77.61% # Class of executed instruction
system.cpu0.op_class::SimdFloatCvt                  0      0.00%     77.61% # Class of executed instruction
system.cpu0.op_class::SimdFloatDiv                  0      0.00%     77.61% # Class of executed instruction
system.cpu0.op_class::SimdFloatMisc                 0      0.00%     77.61% # Class of executed instruction
system.cpu0.op_class::SimdFloatMult                 0      0.00%     77.61% # Class of executed instruction
system.cpu0.op_class::SimdFloatMultAcc              0      0.00%     77.61% # Class of executed instruction
system.cpu0.op_class::SimdFloatSqrt                 0      0.00%     77.61% # Class of executed instruction
system.cpu0.op_class::MemRead                 5783860     16.61%     94.22% # Class of executed instruction
system.cpu0.op_class::MemWrite                2013208      5.78%    100.00% # Class of executed instruction
system.cpu0.op_class::IprAccess                     0      0.00%    100.00% # Class of executed instruction
system.cpu0.op_class::InstPrefetch                  0      0.00%    100.00% # Class of executed instruction
system.cpu0.op_class::total                  34827586                       # Class of executed instruction
system.cpu1.apic_clk_domain.clock                8000                       # Clock period in ticks
system.cpu1.numCycles                      7460414504                       # number of cpu cycles simulated
system.cpu1.numWorkItemsStarted                     0                       # number of work items this cpu started
system.cpu1.numWorkItemsCompleted                   0                       # number of work items this cpu completed
system.cpu1.kern.inst.arm                           0                       # number of arm instructions executed
system.cpu1.kern.inst.quiesce                       0                       # number of quiesce instructions executed
system.cpu1.committedInsts                 1994050236                       # Number of instructions committed
system.cpu1.committedOps                   3392038159                       # Number of ops (including micro ops) committed
system.cpu1.num_int_alu_accesses           2756698763                       # Number of integer alu accesses
system.cpu1.num_fp_alu_accesses            1010088517                       # Number of float alu accesses
system.cpu1.num_func_calls                   49910159                       # number of times a function call or return occured
system.cpu1.num_conditional_control_insts    199776365                       # number of instructions that are conditional controls
system.cpu1.num_int_insts                  2756698763                       # number of integer instructions
system.cpu1.num_fp_insts                   1010088517                       # number of float instructions
system.cpu1.num_int_register_reads         5216565895                       # number of times the integer registers were read
system.cpu1.num_int_register_writes        2051897269                       # number of times the integer registers were written
system.cpu1.num_fp_register_reads          1701898740                       # number of times the floating registers were read
system.cpu1.num_fp_register_writes          899765659                       # number of times the floating registers were written
system.cpu1.num_cc_register_reads          1288222392                       # number of times the CC registers were read
system.cpu1.num_cc_register_writes         1039093128                       # number of times the CC registers were written
system.cpu1.num_mem_refs                    738043348                       # number of memory refs
system.cpu1.num_load_insts                  571690334                       # Number of load instructions
system.cpu1.num_store_insts                 166353014                       # Number of store instructions
system.cpu1.num_idle_cycles              68207396.949237                       # Number of idle cycles
system.cpu1.num_busy_cycles              7392207107.050763                       # Number of busy cycles
system.cpu1.not_idle_fraction                0.990857                       # Percentage of non-idle cycles
system.cpu1.idle_fraction                    0.009143                       # Percentage of idle cycles
system.cpu1.Branches                        261091307                       # Number of branches fetched
system.cpu1.op_class::No_OpClass              1506247      0.04%      0.04% # Class of executed instruction
system.cpu1.op_class::IntAlu               2188619011     64.52%     64.57% # Class of executed instruction
system.cpu1.op_class::IntMult                24040078      0.71%     65.28% # Class of executed instruction
system.cpu1.op_class::IntDiv                   210263      0.01%     65.28% # Class of executed instruction
system.cpu1.op_class::FloatAdd              439619365     12.96%     78.24% # Class of executed instruction
system.cpu1.op_class::FloatCmp                      0      0.00%     78.24% # Class of executed instruction
system.cpu1.op_class::FloatCvt                      0      0.00%     78.24% # Class of executed instruction
system.cpu1.op_class::FloatMult                     0      0.00%     78.24% # Class of executed instruction
system.cpu1.op_class::FloatDiv                      0      0.00%     78.24% # Class of executed instruction
system.cpu1.op_class::FloatSqrt                     0      0.00%     78.24% # Class of executed instruction
system.cpu1.op_class::SimdAdd                       0      0.00%     78.24% # Class of executed instruction
system.cpu1.op_class::SimdAddAcc                    0      0.00%     78.24% # Class of executed instruction
system.cpu1.op_class::SimdAlu                       0      0.00%     78.24% # Class of executed instruction
system.cpu1.op_class::SimdCmp                       0      0.00%     78.24% # Class of executed instruction
system.cpu1.op_class::SimdCvt                       0      0.00%     78.24% # Class of executed instruction
system.cpu1.op_class::SimdMisc                      0      0.00%     78.24% # Class of executed instruction
system.cpu1.op_class::SimdMult                      0      0.00%     78.24% # Class of executed instruction
system.cpu1.op_class::SimdMultAcc                   0      0.00%     78.24% # Class of executed instruction
system.cpu1.op_class::SimdShift                     0      0.00%     78.24% # Class of executed instruction
system.cpu1.op_class::SimdShiftAcc                  0      0.00%     78.24% # Class of executed instruction
system.cpu1.op_class::SimdSqrt                      0      0.00%     78.24% # Class of executed instruction
system.cpu1.op_class::SimdFloatAdd                  0      0.00%     78.24% # Class of executed instruction
system.cpu1.op_class::SimdFloatAlu                  0      0.00%     78.24% # Class of executed instruction
system.cpu1.op_class::SimdFloatCmp                  0      0.00%     78.24% # Class of executed instruction
system.cpu1.op_class::SimdFloatCvt                  0      0.00%     78.24% # Class of executed instruction
system.cpu1.op_class::SimdFloatDiv                  0      0.00%     78.24% # Class of executed instruction
system.cpu1.op_class::SimdFloatMisc                 0      0.00%     78.24% # Class of executed instruction
system.cpu1.op_class::SimdFloatMult                 0      0.00%     78.24% # Class of executed instruction
system.cpu1.op_class::SimdFloatMultAcc              0      0.00%     78.24% # Class of executed instruction
system.cpu1.op_class::SimdFloatSqrt                 0      0.00%     78.24% # Class of executed instruction
system.cpu1.op_class::MemRead               571690334     16.85%     95.10% # Class of executed instruction
system.cpu1.op_class::MemWrite              166353014      4.90%    100.00% # Class of executed instruction
system.cpu1.op_class::IprAccess                     0      0.00%    100.00% # Class of executed instruction
system.cpu1.op_class::InstPrefetch                  0      0.00%    100.00% # Class of executed instruction
system.cpu1.op_class::total                3392038312                       # Class of executed instruction
system.cpu2.apic_clk_domain.clock                8000                       # Clock period in ticks
system.cpu2.numCycles                      7458086518                       # number of cpu cycles simulated
system.cpu2.numWorkItemsStarted                     0                       # number of work items this cpu started
system.cpu2.numWorkItemsCompleted                   0                       # number of work items this cpu completed
system.cpu2.kern.inst.arm                           0                       # number of arm instructions executed
system.cpu2.kern.inst.quiesce                       0                       # number of quiesce instructions executed
system.cpu2.committedInsts                    2664898                       # Number of instructions committed
system.cpu2.committedOps                      5748304                       # Number of ops (including micro ops) committed
system.cpu2.num_int_alu_accesses              5621197                       # Number of integer alu accesses
system.cpu2.num_fp_alu_accesses                     0                       # Number of float alu accesses
system.cpu2.num_func_calls                     158091                       # number of times a function call or return occured
system.cpu2.num_conditional_control_insts       405517                       # number of instructions that are conditional controls
system.cpu2.num_int_insts                     5621197                       # number of integer instructions
system.cpu2.num_fp_insts                            0                       # number of float instructions
system.cpu2.num_int_register_reads           11420702                       # number of times the integer registers were read
system.cpu2.num_int_register_writes           4666172                       # number of times the integer registers were written
system.cpu2.num_fp_register_reads                   0                       # number of times the floating registers were read
system.cpu2.num_fp_register_writes                  0                       # number of times the floating registers were written
system.cpu2.num_cc_register_reads             3243955                       # number of times the CC registers were read
system.cpu2.num_cc_register_writes            1705940                       # number of times the CC registers were written
system.cpu2.num_mem_refs                      1367915                       # number of memory refs
system.cpu2.num_load_insts                     852267                       # Number of load instructions
system.cpu2.num_store_insts                    515648                       # Number of store instructions
system.cpu2.num_idle_cycles              7433764114.253143                       # Number of idle cycles
system.cpu2.num_busy_cycles              24322403.746857                       # Number of busy cycles
system.cpu2.not_idle_fraction                0.003261                       # Percentage of non-idle cycles
system.cpu2.idle_fraction                    0.996739                       # Percentage of idle cycles
system.cpu2.Branches                           614784                       # Number of branches fetched
system.cpu2.op_class::No_OpClass               108034      1.88%      1.88% # Class of executed instruction
system.cpu2.op_class::IntAlu                  4222622     73.46%     75.34% # Class of executed instruction
system.cpu2.op_class::IntMult                   11707      0.20%     75.54% # Class of executed instruction
system.cpu2.op_class::IntDiv                    38032      0.66%     76.20% # Class of executed instruction
system.cpu2.op_class::FloatAdd                      0      0.00%     76.20% # Class of executed instruction
system.cpu2.op_class::FloatCmp                      0      0.00%     76.20% # Class of executed instruction
system.cpu2.op_class::FloatCvt                      0      0.00%     76.20% # Class of executed instruction
system.cpu2.op_class::FloatMult                     0      0.00%     76.20% # Class of executed instruction
system.cpu2.op_class::FloatDiv                      0      0.00%     76.20% # Class of executed instruction
system.cpu2.op_class::FloatSqrt                     0      0.00%     76.20% # Class of executed instruction
system.cpu2.op_class::SimdAdd                       0      0.00%     76.20% # Class of executed instruction
system.cpu2.op_class::SimdAddAcc                    0      0.00%     76.20% # Class of executed instruction
system.cpu2.op_class::SimdAlu                       0      0.00%     76.20% # Class of executed instruction
system.cpu2.op_class::SimdCmp                       0      0.00%     76.20% # Class of executed instruction
system.cpu2.op_class::SimdCvt                       0      0.00%     76.20% # Class of executed instruction
system.cpu2.op_class::SimdMisc                      0      0.00%     76.20% # Class of executed instruction
system.cpu2.op_class::SimdMult                      0      0.00%     76.20% # Class of executed instruction
system.cpu2.op_class::SimdMultAcc                   0      0.00%     76.20% # Class of executed instruction
system.cpu2.op_class::SimdShift                     0      0.00%     76.20% # Class of executed instruction
system.cpu2.op_class::SimdShiftAcc                  0      0.00%     76.20% # Class of executed instruction
system.cpu2.op_class::SimdSqrt                      0      0.00%     76.20% # Class of executed instruction
system.cpu2.op_class::SimdFloatAdd                  0      0.00%     76.20% # Class of executed instruction
system.cpu2.op_class::SimdFloatAlu                  0      0.00%     76.20% # Class of executed instruction
system.cpu2.op_class::SimdFloatCmp                  0      0.00%     76.20% # Class of executed instruction
system.cpu2.op_class::SimdFloatCvt                  0      0.00%     76.20% # Class of executed instruction
system.cpu2.op_class::SimdFloatDiv                  0      0.00%     76.20% # Class of executed instruction
system.cpu2.op_class::SimdFloatMisc                 0      0.00%     76.20% # Class of executed instruction
system.cpu2.op_class::SimdFloatMult                 0      0.00%     76.20% # Class of executed instruction
system.cpu2.op_class::SimdFloatMultAcc              0      0.00%     76.20% # Class of executed instruction
system.cpu2.op_class::SimdFloatSqrt                 0      0.00%     76.20% # Class of executed instruction
system.cpu2.op_class::MemRead                  852267     14.83%     91.03% # Class of executed instruction
system.cpu2.op_class::MemWrite                 515648      8.97%    100.00% # Class of executed instruction
system.cpu2.op_class::IprAccess                     0      0.00%    100.00% # Class of executed instruction
system.cpu2.op_class::InstPrefetch                  0      0.00%    100.00% # Class of executed instruction
system.cpu2.op_class::total                   5748310                       # Class of executed instruction
system.cpu3.apic_clk_domain.clock                8000                       # Clock period in ticks
system.cpu3.numCycles                      7455790172                       # number of cpu cycles simulated
system.cpu3.numWorkItemsStarted                     0                       # number of work items this cpu started
system.cpu3.numWorkItemsCompleted                   0                       # number of work items this cpu completed
system.cpu3.kern.inst.arm                           0                       # number of arm instructions executed
system.cpu3.kern.inst.quiesce                       0                       # number of quiesce instructions executed
system.cpu3.committedInsts                    3307842                       # Number of instructions committed
system.cpu3.committedOps                      6877561                       # Number of ops (including micro ops) committed
system.cpu3.num_int_alu_accesses              6744321                       # Number of integer alu accesses
system.cpu3.num_fp_alu_accesses                  1952                       # Number of float alu accesses
system.cpu3.num_func_calls                     177391                       # number of times a function call or return occured
system.cpu3.num_conditional_control_insts       503556                       # number of instructions that are conditional controls
system.cpu3.num_int_insts                     6744321                       # number of integer instructions
system.cpu3.num_fp_insts                         1952                       # number of float instructions
system.cpu3.num_int_register_reads           13695151                       # number of times the integer registers were read
system.cpu3.num_int_register_writes           5562511                       # number of times the integer registers were written
system.cpu3.num_fp_register_reads                3276                       # number of times the floating registers were read
system.cpu3.num_fp_register_writes               1552                       # number of times the floating registers were written
system.cpu3.num_cc_register_reads             3847463                       # number of times the CC registers were read
system.cpu3.num_cc_register_writes            2111797                       # number of times the CC registers were written
system.cpu3.num_mem_refs                      1624835                       # number of memory refs
system.cpu3.num_load_insts                    1008798                       # Number of load instructions
system.cpu3.num_store_insts                    616037                       # Number of store instructions
system.cpu3.num_idle_cycles              7429826017.746448                       # Number of idle cycles
system.cpu3.num_busy_cycles              25964154.253553                       # Number of busy cycles
system.cpu3.not_idle_fraction                0.003482                       # Percentage of non-idle cycles
system.cpu3.idle_fraction                    0.996518                       # Percentage of idle cycles
system.cpu3.Branches                           740561                       # Number of branches fetched
system.cpu3.op_class::No_OpClass               105425      1.53%      1.53% # Class of executed instruction
system.cpu3.op_class::IntAlu                  5093297     74.06%     75.59% # Class of executed instruction
system.cpu3.op_class::IntMult                   15451      0.22%     75.81% # Class of executed instruction
system.cpu3.op_class::IntDiv                    37186      0.54%     76.35% # Class of executed instruction
system.cpu3.op_class::FloatAdd                   1456      0.02%     76.38% # Class of executed instruction
system.cpu3.op_class::FloatCmp                      0      0.00%     76.38% # Class of executed instruction
system.cpu3.op_class::FloatCvt                      0      0.00%     76.38% # Class of executed instruction
system.cpu3.op_class::FloatMult                     0      0.00%     76.38% # Class of executed instruction
system.cpu3.op_class::FloatDiv                      0      0.00%     76.38% # Class of executed instruction
system.cpu3.op_class::FloatSqrt                     0      0.00%     76.38% # Class of executed instruction
system.cpu3.op_class::SimdAdd                       0      0.00%     76.38% # Class of executed instruction
system.cpu3.op_class::SimdAddAcc                    0      0.00%     76.38% # Class of executed instruction
system.cpu3.op_class::SimdAlu                       0      0.00%     76.38% # Class of executed instruction
system.cpu3.op_class::SimdCmp                       0      0.00%     76.38% # Class of executed instruction
system.cpu3.op_class::SimdCvt                       0      0.00%     76.38% # Class of executed instruction
system.cpu3.op_class::SimdMisc                      0      0.00%     76.38% # Class of executed instruction
system.cpu3.op_class::SimdMult                      0      0.00%     76.38% # Class of executed instruction
system.cpu3.op_class::SimdMultAcc                   0      0.00%     76.38% # Class of executed instruction
system.cpu3.op_class::SimdShift                     0      0.00%     76.38% # Class of executed instruction
system.cpu3.op_class::SimdShiftAcc                  0      0.00%     76.38% # Class of executed instruction
system.cpu3.op_class::SimdSqrt                      0      0.00%     76.38% # Class of executed instruction
system.cpu3.op_class::SimdFloatAdd                  0      0.00%     76.38% # Class of executed instruction
system.cpu3.op_class::SimdFloatAlu                  0      0.00%     76.38% # Class of executed instruction
system.cpu3.op_class::SimdFloatCmp                  0      0.00%     76.38% # Class of executed instruction
system.cpu3.op_class::SimdFloatCvt                  0      0.00%     76.38% # Class of executed instruction
system.cpu3.op_class::SimdFloatDiv                  0      0.00%     76.38% # Class of executed instruction
system.cpu3.op_class::SimdFloatMisc                 0      0.00%     76.38% # Class of executed instruction
system.cpu3.op_class::SimdFloatMult                 0      0.00%     76.38% # Class of executed instruction
system.cpu3.op_class::SimdFloatMultAcc              0      0.00%     76.38% # Class of executed instruction
system.cpu3.op_class::SimdFloatSqrt                 0      0.00%     76.38% # Class of executed instruction
system.cpu3.op_class::MemRead                 1008798     14.67%     91.04% # Class of executed instruction
system.cpu3.op_class::MemWrite                 616037      8.96%    100.00% # Class of executed instruction
system.cpu3.op_class::IprAccess                     0      0.00%    100.00% # Class of executed instruction
system.cpu3.op_class::InstPrefetch                  0      0.00%    100.00% # Class of executed instruction
system.cpu3.op_class::total                   6877650                       # Class of executed instruction
system.iobus.trans_dist::ReadReq                  114                       # Transaction distribution
system.iobus.trans_dist::ReadResp                 114                       # Transaction distribution
system.iobus.trans_dist::WriteReq                3861                       # Transaction distribution
system.iobus.trans_dist::WriteResp               3861                       # Transaction distribution
system.iobus.trans_dist::MessageReq                18                       # Transaction distribution
system.iobus.trans_dist::MessageResp               18                       # Transaction distribution
system.iobus.pkt_count_system.pc.south_bridge.io_apic.int_master::system.ruby.l1_cntrl0.sequencer.pio-slave-port            4                       # Packet count per connected master and slave (bytes)
system.iobus.pkt_count_system.pc.south_bridge.io_apic.int_master::system.ruby.l1_cntrl1.sequencer.pio-slave-port            4                       # Packet count per connected master and slave (bytes)
system.iobus.pkt_count_system.pc.south_bridge.io_apic.int_master::system.ruby.l1_cntrl2.sequencer.pio-slave-port            4                       # Packet count per connected master and slave (bytes)
system.iobus.pkt_count_system.pc.south_bridge.io_apic.int_master::system.ruby.l1_cntrl3.sequencer.pio-slave-port            6                       # Packet count per connected master and slave (bytes)
system.iobus.pkt_count_system.pc.south_bridge.io_apic.int_master::total           18                       # Packet count per connected master and slave (bytes)
system.iobus.pkt_count_system.ruby.l1_cntrl0.sequencer.mem-master-port::system.pc.south_bridge.ide.pio          114                       # Packet count per connected master and slave (bytes)
system.iobus.pkt_count_system.ruby.l1_cntrl0.sequencer.mem-master-port::system.pc.south_bridge.io_apic.pio            8                       # Packet count per connected master and slave (bytes)
system.iobus.pkt_count_system.ruby.l1_cntrl0.sequencer.mem-master-port::system.ruby.l1_cntrl0.sequencer.pio-slave-port         1890                       # Packet count per connected master and slave (bytes)
system.iobus.pkt_count_system.ruby.l1_cntrl0.sequencer.mem-master-port::system.ruby.l1_cntrl1.sequencer.pio-slave-port            2                       # Packet count per connected master and slave (bytes)
system.iobus.pkt_count_system.ruby.l1_cntrl0.sequencer.mem-master-port::system.ruby.l1_cntrl3.sequencer.pio-slave-port            2                       # Packet count per connected master and slave (bytes)
system.iobus.pkt_count_system.ruby.l1_cntrl0.sequencer.mem-master-port::total         2016                       # Packet count per connected master and slave (bytes)
system.iobus.pkt_count_system.ruby.l1_cntrl1.sequencer.mem-master-port::system.pc.south_bridge.ide.pio           12                       # Packet count per connected master and slave (bytes)
system.iobus.pkt_count_system.ruby.l1_cntrl1.sequencer.mem-master-port::system.pc.south_bridge.io_apic.pio            8                       # Packet count per connected master and slave (bytes)
system.iobus.pkt_count_system.ruby.l1_cntrl1.sequencer.mem-master-port::system.pc.com_1.pio            2                       # Packet count per connected master and slave (bytes)
system.iobus.pkt_count_system.ruby.l1_cntrl1.sequencer.mem-master-port::system.ruby.l1_cntrl0.sequencer.pio-slave-port            4                       # Packet count per connected master and slave (bytes)
system.iobus.pkt_count_system.ruby.l1_cntrl1.sequencer.mem-master-port::system.ruby.l1_cntrl1.sequencer.pio-slave-port         1892                       # Packet count per connected master and slave (bytes)
system.iobus.pkt_count_system.ruby.l1_cntrl1.sequencer.mem-master-port::system.ruby.l1_cntrl2.sequencer.pio-slave-port            2                       # Packet count per connected master and slave (bytes)
system.iobus.pkt_count_system.ruby.l1_cntrl1.sequencer.mem-master-port::total         1920                       # Packet count per connected master and slave (bytes)
system.iobus.pkt_count_system.ruby.l1_cntrl2.sequencer.mem-master-port::system.pc.south_bridge.ide.pio           12                       # Packet count per connected master and slave (bytes)
system.iobus.pkt_count_system.ruby.l1_cntrl2.sequencer.mem-master-port::system.pc.south_bridge.io_apic.pio            8                       # Packet count per connected master and slave (bytes)
system.iobus.pkt_count_system.ruby.l1_cntrl2.sequencer.mem-master-port::system.ruby.l1_cntrl0.sequencer.pio-slave-port            2                       # Packet count per connected master and slave (bytes)
system.iobus.pkt_count_system.ruby.l1_cntrl2.sequencer.mem-master-port::system.ruby.l1_cntrl2.sequencer.pio-slave-port         1888                       # Packet count per connected master and slave (bytes)
system.iobus.pkt_count_system.ruby.l1_cntrl2.sequencer.mem-master-port::system.ruby.l1_cntrl3.sequencer.pio-slave-port            2                       # Packet count per connected master and slave (bytes)
system.iobus.pkt_count_system.ruby.l1_cntrl2.sequencer.mem-master-port::total         1912                       # Packet count per connected master and slave (bytes)
system.iobus.pkt_count_system.ruby.l1_cntrl3.sequencer.mem-master-port::system.pc.south_bridge.ide.pio           46                       # Packet count per connected master and slave (bytes)
system.iobus.pkt_count_system.ruby.l1_cntrl3.sequencer.mem-master-port::system.pc.south_bridge.io_apic.pio            6                       # Packet count per connected master and slave (bytes)
system.iobus.pkt_count_system.ruby.l1_cntrl3.sequencer.mem-master-port::system.pc.com_1.pio          176                       # Packet count per connected master and slave (bytes)
system.iobus.pkt_count_system.ruby.l1_cntrl3.sequencer.mem-master-port::system.ruby.l1_cntrl0.sequencer.pio-slave-port            2                       # Packet count per connected master and slave (bytes)
system.iobus.pkt_count_system.ruby.l1_cntrl3.sequencer.mem-master-port::system.ruby.l1_cntrl2.sequencer.pio-slave-port            2                       # Packet count per connected master and slave (bytes)
system.iobus.pkt_count_system.ruby.l1_cntrl3.sequencer.mem-master-port::system.ruby.l1_cntrl3.sequencer.pio-slave-port         1888                       # Packet count per connected master and slave (bytes)
system.iobus.pkt_count_system.ruby.l1_cntrl3.sequencer.mem-master-port::total         2120                       # Packet count per connected master and slave (bytes)
system.iobus.pkt_count::total                    7986                       # Packet count per connected master and slave (bytes)
system.iobus.pkt_size_system.pc.south_bridge.io_apic.int_master::system.ruby.l1_cntrl0.sequencer.pio-slave-port            8                       # Cumulative packet size per connected master and slave (bytes)
system.iobus.pkt_size_system.pc.south_bridge.io_apic.int_master::system.ruby.l1_cntrl1.sequencer.pio-slave-port            8                       # Cumulative packet size per connected master and slave (bytes)
system.iobus.pkt_size_system.pc.south_bridge.io_apic.int_master::system.ruby.l1_cntrl2.sequencer.pio-slave-port            8                       # Cumulative packet size per connected master and slave (bytes)
system.iobus.pkt_size_system.pc.south_bridge.io_apic.int_master::system.ruby.l1_cntrl3.sequencer.pio-slave-port           12                       # Cumulative packet size per connected master and slave (bytes)
system.iobus.pkt_size_system.pc.south_bridge.io_apic.int_master::total           36                       # Cumulative packet size per connected master and slave (bytes)
system.iobus.pkt_size_system.ruby.l1_cntrl0.sequencer.mem-master-port::system.pc.south_bridge.ide.pio           66                       # Cumulative packet size per connected master and slave (bytes)
system.iobus.pkt_size_system.ruby.l1_cntrl0.sequencer.mem-master-port::system.pc.south_bridge.io_apic.pio           16                       # Cumulative packet size per connected master and slave (bytes)
system.iobus.pkt_size_system.ruby.l1_cntrl0.sequencer.mem-master-port::system.ruby.l1_cntrl0.sequencer.pio-slave-port         3780                       # Cumulative packet size per connected master and slave (bytes)
system.iobus.pkt_size_system.ruby.l1_cntrl0.sequencer.mem-master-port::system.ruby.l1_cntrl1.sequencer.pio-slave-port            4                       # Cumulative packet size per connected master and slave (bytes)
system.iobus.pkt_size_system.ruby.l1_cntrl0.sequencer.mem-master-port::system.ruby.l1_cntrl3.sequencer.pio-slave-port            4                       # Cumulative packet size per connected master and slave (bytes)
system.iobus.pkt_size_system.ruby.l1_cntrl0.sequencer.mem-master-port::total         3870                       # Cumulative packet size per connected master and slave (bytes)
system.iobus.pkt_size_system.ruby.l1_cntrl1.sequencer.mem-master-port::system.pc.south_bridge.ide.pio            6                       # Cumulative packet size per connected master and slave (bytes)
system.iobus.pkt_size_system.ruby.l1_cntrl1.sequencer.mem-master-port::system.pc.south_bridge.io_apic.pio           16                       # Cumulative packet size per connected master and slave (bytes)
system.iobus.pkt_size_system.ruby.l1_cntrl1.sequencer.mem-master-port::system.pc.com_1.pio            1                       # Cumulative packet size per connected master and slave (bytes)
system.iobus.pkt_size_system.ruby.l1_cntrl1.sequencer.mem-master-port::system.ruby.l1_cntrl0.sequencer.pio-slave-port            8                       # Cumulative packet size per connected master and slave (bytes)
system.iobus.pkt_size_system.ruby.l1_cntrl1.sequencer.mem-master-port::system.ruby.l1_cntrl1.sequencer.pio-slave-port         3784                       # Cumulative packet size per connected master and slave (bytes)
system.iobus.pkt_size_system.ruby.l1_cntrl1.sequencer.mem-master-port::system.ruby.l1_cntrl2.sequencer.pio-slave-port            4                       # Cumulative packet size per connected master and slave (bytes)
system.iobus.pkt_size_system.ruby.l1_cntrl1.sequencer.mem-master-port::total         3819                       # Cumulative packet size per connected master and slave (bytes)
system.iobus.pkt_size_system.ruby.l1_cntrl2.sequencer.mem-master-port::system.pc.south_bridge.ide.pio            6                       # Cumulative packet size per connected master and slave (bytes)
system.iobus.pkt_size_system.ruby.l1_cntrl2.sequencer.mem-master-port::system.pc.south_bridge.io_apic.pio           16                       # Cumulative packet size per connected master and slave (bytes)
system.iobus.pkt_size_system.ruby.l1_cntrl2.sequencer.mem-master-port::system.ruby.l1_cntrl0.sequencer.pio-slave-port            4                       # Cumulative packet size per connected master and slave (bytes)
system.iobus.pkt_size_system.ruby.l1_cntrl2.sequencer.mem-master-port::system.ruby.l1_cntrl2.sequencer.pio-slave-port         3776                       # Cumulative packet size per connected master and slave (bytes)
system.iobus.pkt_size_system.ruby.l1_cntrl2.sequencer.mem-master-port::system.ruby.l1_cntrl3.sequencer.pio-slave-port            4                       # Cumulative packet size per connected master and slave (bytes)
system.iobus.pkt_size_system.ruby.l1_cntrl2.sequencer.mem-master-port::total         3806                       # Cumulative packet size per connected master and slave (bytes)
system.iobus.pkt_size_system.ruby.l1_cntrl3.sequencer.mem-master-port::system.pc.south_bridge.ide.pio           26                       # Cumulative packet size per connected master and slave (bytes)
system.iobus.pkt_size_system.ruby.l1_cntrl3.sequencer.mem-master-port::system.pc.south_bridge.io_apic.pio           12                       # Cumulative packet size per connected master and slave (bytes)
system.iobus.pkt_size_system.ruby.l1_cntrl3.sequencer.mem-master-port::system.pc.com_1.pio           88                       # Cumulative packet size per connected master and slave (bytes)
system.iobus.pkt_size_system.ruby.l1_cntrl3.sequencer.mem-master-port::system.ruby.l1_cntrl0.sequencer.pio-slave-port            4                       # Cumulative packet size per connected master and slave (bytes)
system.iobus.pkt_size_system.ruby.l1_cntrl3.sequencer.mem-master-port::system.ruby.l1_cntrl2.sequencer.pio-slave-port            4                       # Cumulative packet size per connected master and slave (bytes)
system.iobus.pkt_size_system.ruby.l1_cntrl3.sequencer.mem-master-port::system.ruby.l1_cntrl3.sequencer.pio-slave-port         3776                       # Cumulative packet size per connected master and slave (bytes)
system.iobus.pkt_size_system.ruby.l1_cntrl3.sequencer.mem-master-port::total         3910                       # Cumulative packet size per connected master and slave (bytes)
system.iobus.pkt_size::total                    15441                       # Cumulative packet size per connected master and slave (bytes)
system.iobus.reqLayer2.occupancy               165500                       # Layer occupancy (ticks)
system.iobus.reqLayer2.utilization                0.0                       # Layer utilization (%)
system.iobus.reqLayer8.occupancy                27496                       # Layer occupancy (ticks)
system.iobus.reqLayer8.utilization                0.0                       # Layer utilization (%)
system.iobus.reqLayer12.occupancy              114000                       # Layer occupancy (ticks)
system.iobus.reqLayer12.utilization               0.0                       # Layer utilization (%)
system.iobus.reqLayer17.occupancy             2144494                       # Layer occupancy (ticks)
system.iobus.reqLayer17.utilization               0.0                       # Layer utilization (%)
system.iobus.reqLayer18.occupancy             2142982                       # Layer occupancy (ticks)
system.iobus.reqLayer18.utilization               0.0                       # Layer utilization (%)
system.iobus.reqLayer19.occupancy             2171498                       # Layer occupancy (ticks)
system.iobus.reqLayer19.utilization               0.0                       # Layer utilization (%)
system.iobus.reqLayer20.occupancy             2348498                       # Layer occupancy (ticks)
system.iobus.reqLayer20.utilization               0.0                       # Layer utilization (%)
system.iobus.respLayer0.occupancy               13496                       # Layer occupancy (ticks)
system.iobus.respLayer0.utilization               0.0                       # Layer utilization (%)
system.iobus.respLayer2.occupancy             1501000                       # Layer occupancy (ticks)
system.iobus.respLayer2.utilization               0.0                       # Layer utilization (%)
system.iobus.respLayer4.occupancy             1443000                       # Layer occupancy (ticks)
system.iobus.respLayer4.utilization               0.0                       # Layer utilization (%)
system.iobus.respLayer6.occupancy             1436000                       # Layer occupancy (ticks)
system.iobus.respLayer6.utilization               0.0                       # Layer utilization (%)
system.iobus.respLayer8.occupancy             1609000                       # Layer occupancy (ticks)
system.iobus.respLayer8.utilization               0.0                       # Layer utilization (%)
system.pc.south_bridge.ide.disks.dma_read_full_pages            1                       # Number of full page size DMA reads (not PRD).
system.pc.south_bridge.ide.disks.dma_read_bytes         4096                       # Number of bytes transfered via DMA reads (not PRD).
system.pc.south_bridge.ide.disks.dma_read_txs            1                       # Number of DMA read transactions (not PRD).
system.pc.south_bridge.ide.disks.dma_write_full_pages           45                       # Number of full page size DMA writes.
system.pc.south_bridge.ide.disks.dma_write_bytes       184320                       # Number of bytes transfered via DMA writes.
system.pc.south_bridge.ide.disks.dma_write_txs           45                       # Number of DMA write transactions.
system.ruby.clk_domain.clock                      500                       # Clock period in ticks
system.ruby.delayHist::bucket_size                  2                       # delay histogram for all message
system.ruby.delayHist::max_bucket                  19                       # delay histogram for all message
system.ruby.delayHist::samples                6593142                       # delay histogram for all message
system.ruby.delayHist::mean                  0.002130                       # delay histogram for all message
system.ruby.delayHist::stdev                 0.128159                       # delay histogram for all message
system.ruby.delayHist                    |     6590955     99.97%     99.97% |         294      0.00%     99.97% |         324      0.00%     99.98% |         525      0.01%     99.98% |         960      0.01%    100.00% |          10      0.00%    100.00% |           6      0.00%    100.00% |          10      0.00%    100.00% |          15      0.00%    100.00% |          43      0.00%    100.00% # delay histogram for all message
system.ruby.delayHist::total                  6593142                       # delay histogram for all message
system.ruby.outstanding_req_hist_seqr::bucket_size            1                      
[...]
system.ruby.LD.Directory.miss_type_mach_latency_hist_seqr::total      1712266                      
system.ruby.ST.L1Cache.miss_type_mach_latency_hist_seqr::bucket_size            8                      
system.ruby.ST.L1Cache.miss_type_mach_latency_hist_seqr::max_bucket           79                      
system.ruby.ST.L1Cache.miss_type_mach_latency_hist_seqr::samples        10246                      
system.ruby.ST.L1Cache.miss_type_mach_latency_hist_seqr::mean    47.247511                      
system.ruby.ST.L1Cache.miss_type_mach_latency_hist_seqr::gmean    47.203353                      
system.ruby.ST.L1Cache.miss_type_mach_latency_hist_seqr::stdev     2.042504                      
system.ruby.ST.L1Cache.miss_type_mach_latency_hist_seqr |           0      0.00%      0.00% |           0      0.00%      0.00% |           0      0.00%      0.00% |           0      0.00%      0.00% |           0      0.00%      0.00% |        4547     44.38%     44.38% |        5688     55.51%     99.89% |          11      0.11%    100.00% |           0      0.00%    100.00% |           0      0.00%    100.00%
system.ruby.ST.L1Cache.miss_type_mach_latency_hist_seqr::total        10246                      
system.ruby.ST.Directory.miss_type_mach_latency_hist_seqr::bucket_size          256                      
system.ruby.ST.Directory.miss_type_mach_latency_hist_seqr::max_bucket         2559                      
system.ruby.ST.Directory.miss_type_mach_latency_hist_seqr::samples      1318975                      
system.ruby.ST.Directory.miss_type_mach_latency_hist_seqr::mean   122.138866                      
system.ruby.ST.Directory.miss_type_mach_latency_hist_seqr::gmean   105.819958                      
system.ruby.ST.Directory.miss_type_mach_latency_hist_seqr::stdev    87.292025                      
system.ruby.ST.Directory.miss_type_mach_latency_hist_seqr |     1224380     92.83%     92.83% |       79220      6.01%     98.83% |       14557      1.10%     99.94% |         626      0.05%     99.99% |         186      0.01%    100.00% |           6      0.00%    100.00% |           0      0.00%    100.00% |           0      0.00%    100.00% |           0      0.00%    100.00% |           0      0.00%    100.00%
system.ruby.ST.Directory.miss_type_mach_latency_hist_seqr::total      1318975                      
system.ruby.IFETCH.L1Cache.miss_type_mach_latency_hist_seqr::bucket_size           32                      
system.ruby.IFETCH.L1Cache.miss_type_mach_latency_hist_seqr::max_bucket          319                      
system.ruby.IFETCH.L1Cache.miss_type_mach_latency_hist_seqr::samples      1352655                      
system.ruby.IFETCH.L1Cache.miss_type_mach_latency_hist_seqr::mean    45.352383                      
system.ruby.IFETCH.L1Cache.miss_type_mach_latency_hist_seqr::gmean    45.338064                      
system.ruby.IFETCH.L1Cache.miss_type_mach_latency_hist_seqr::stdev     1.192715                      
system.ruby.IFETCH.L1Cache.miss_type_mach_latency_hist_seqr |           0      0.00%      0.00% |     1352648    100.00%    100.00% |           3      0.00%    100.00% |           0      0.00%    100.00% |           2      0.00%    100.00% |           0      0.00%    100.00% |           1      0.00%    100.00% |           0      0.00%    100.00% |           0      0.00%    100.00% |           1      0.00%    100.00%
system.ruby.IFETCH.L1Cache.miss_type_mach_latency_hist_seqr::total      1352655                      
system.ruby.IFETCH.Directory.miss_type_mach_latency_hist_seqr::bucket_size          256                      
system.ruby.IFETCH.Directory.miss_type_mach_latency_hist_seqr::max_bucket         2559                      
system.ruby.IFETCH.Directory.miss_type_mach_latency_hist_seqr::samples      2156240                      
system.ruby.IFETCH.Directory.miss_type_mach_latency_hist_seqr::mean   124.963532                      
system.ruby.IFETCH.Directory.miss_type_mach_latency_hist_seqr::gmean   110.559604                      
system.ruby.IFETCH.Directory.miss_type_mach_latency_hist_seqr::stdev    81.799851                      
system.ruby.IFETCH.Directory.miss_type_mach_latency_hist_seqr |     2006196     93.04%     93.04% |      128085      5.94%     98.98% |       20794      0.96%     99.95% |        1016      0.05%     99.99% |         145      0.01%    100.00% |           4      0.00%    100.00% |           0      0.00%    100.00% |           0      0.00%    100.00% |           0      0.00%    100.00% |           0      0.00%    100.00%
system.ruby.IFETCH.Directory.miss_type_mach_latency_hist_seqr::total      2156240                      
system.ruby.RMW_Read.L1Cache.miss_type_mach_latency_hist_seqr::bucket_size            8                      
system.ruby.RMW_Read.L1Cache.miss_type_mach_latency_hist_seqr::max_bucket           79                      
system.ruby.RMW_Read.L1Cache.miss_type_mach_latency_hist_seqr::samples         3255                      
system.ruby.RMW_Read.L1Cache.miss_type_mach_latency_hist_seqr::mean    45.306605                      
system.ruby.RMW_Read.L1Cache.miss_type_mach_latency_hist_seqr::gmean    45.289172                      
system.ruby.RMW_Read.L1Cache.miss_type_mach_latency_hist_seqr::stdev     1.326762                      
system.ruby.RMW_Read.L1Cache.miss_type_mach_latency_hist_seqr |           0      0.00%      0.00% |           0      0.00%      0.00% |           0      0.00%      0.00% |           0      0.00%      0.00% |           0      0.00%      0.00% |        3077     94.53%     94.53% |         166      5.10%     99.63% |          12      0.37%    100.00% |           0      0.00%    100.00% |           0      0.00%    100.00%
system.ruby.RMW_Read.L1Cache.miss_type_mach_latency_hist_seqr::total         3255                      
system.ruby.RMW_Read.Directory.miss_type_mach_latency_hist_seqr::bucket_size          128                      
system.ruby.RMW_Read.Directory.miss_type_mach_latency_hist_seqr::max_bucket         1279                      
system.ruby.RMW_Read.Directory.miss_type_mach_latency_hist_seqr::samples         9535                      
system.ruby.RMW_Read.Directory.miss_type_mach_latency_hist_seqr::mean   130.701416                      
system.ruby.RMW_Read.Directory.miss_type_mach_latency_hist_seqr::gmean   115.971788                      
system.ruby.RMW_Read.Directory.miss_type_mach_latency_hist_seqr::stdev    77.938348                      
system.ruby.RMW_Read.Directory.miss_type_mach_latency_hist_seqr |        7181     75.31%     75.31% |        1674     17.56%     92.87% |         478      5.01%     97.88% |         132      1.38%     99.27% |          55      0.58%     99.84% |          13      0.14%     99.98% |           1      0.01%     99.99% |           1      0.01%    100.00% |           0      0.00%    100.00% |           0      0.00%    100.00%
system.ruby.RMW_Read.Directory.miss_type_mach_latency_hist_seqr::total         9535                      
system.ruby.Locked_RMW_Read.L1Cache.miss_type_mach_latency_hist_seqr::bucket_size            8                      
system.ruby.Locked_RMW_Read.L1Cache.miss_type_mach_latency_hist_seqr::max_bucket           79                      
system.ruby.Locked_RMW_Read.L1Cache.miss_type_mach_latency_hist_seqr::samples         5249                      
system.ruby.Locked_RMW_Read.L1Cache.miss_type_mach_latency_hist_seqr::mean    45.639931                      
system.ruby.Locked_RMW_Read.L1Cache.miss_type_mach_latency_hist_seqr::gmean    45.617454                      
system.ruby.Locked_RMW_Read.L1Cache.miss_type_mach_latency_hist_seqr::stdev     1.461359                      
system.ruby.Locked_RMW_Read.L1Cache.miss_type_mach_latency_hist_seqr |           0      0.00%      0.00% |           0      0.00%      0.00% |           0      0.00%      0.00% |           0      0.00%      0.00% |           0      0.00%      0.00% |        4432     84.44%     84.44% |         817     15.56%    100.00% |           0      0.00%    100.00% |           0      0.00%    100.00% |           0      0.00%    100.00%
system.ruby.Locked_RMW_Read.L1Cache.miss_type_mach_latency_hist_seqr::total         5249                      
system.ruby.Locked_RMW_Read.Directory.miss_type_mach_latency_hist_seqr::bucket_size          128                      
system.ruby.Locked_RMW_Read.Directory.miss_type_mach_latency_hist_seqr::max_bucket         1279                      
system.ruby.Locked_RMW_Read.Directory.miss_type_mach_latency_hist_seqr::samples        10191                      
system.ruby.Locked_RMW_Read.Directory.miss_type_mach_latency_hist_seqr::mean   130.119027                      
system.ruby.Locked_RMW_Read.Directory.miss_type_mach_latency_hist_seqr::gmean   113.852166                      
system.ruby.Locked_RMW_Read.Directory.miss_type_mach_latency_hist_seqr::stdev    74.968621                      
system.ruby.Locked_RMW_Read.Directory.miss_type_mach_latency_hist_seqr |        5210     51.12%     51.12% |        4546     44.61%     95.73% |         231      2.27%     98.00% |         111      1.09%     99.09% |          75      0.74%     99.82% |          16      0.16%     99.98% |           0      0.00%     99.98% |           2      0.02%    100.00% |           0      0.00%    100.00% |           0      0.00%    100.00%
system.ruby.Locked_RMW_Read.Directory.miss_type_mach_latency_hist_seqr::total        10191                      
system.ruby.Directory_Controller.GETX         3578092      0.00%      0.00%
system.ruby.Directory_Controller.PUTX         2666856      0.00%      0.00%
system.ruby.Directory_Controller.PUTX_NotOwner            2      0.00%      0.00%
system.ruby.Directory_Controller.DMA_READ           96      0.00%      0.00%
system.ruby.Directory_Controller.DMA_WRITE         3008      0.00%      0.00%
system.ruby.Directory_Controller.Memory_Data      2667847      0.00%      0.00%
system.ruby.Directory_Controller.Memory_Ack      2669821      0.00%      0.00%
system.ruby.Directory_Controller.I.GETX       2667760      0.00%      0.00%
system.ruby.Directory_Controller.I.DMA_READ           87      0.00%      0.00%
system.ruby.Directory_Controller.I.DMA_WRITE         2965      0.00%      0.00%
system.ruby.Directory_Controller.M.GETX        910111      0.00%      0.00%
system.ruby.Directory_Controller.M.PUTX       2666804      0.00%      0.00%
system.ruby.Directory_Controller.M.PUTX_NotOwner            2      0.00%      0.00%
system.ruby.Directory_Controller.M.DMA_READ            9      0.00%      0.00%
system.ruby.Directory_Controller.M.DMA_WRITE           43      0.00%      0.00%
system.ruby.Directory_Controller.M_DRD.PUTX            9      0.00%      0.00%
system.ruby.Directory_Controller.M_DWR.PUTX           43      0.00%      0.00%
system.ruby.Directory_Controller.M_DWRI.Memory_Ack           43      0.00%      0.00%
system.ruby.Directory_Controller.M_DRDI.Memory_Ack            9      0.00%      0.00%
system.ruby.Directory_Controller.IM.GETX          220      0.00%      0.00%
system.ruby.Directory_Controller.IM.Memory_Data      2667760      0.00%      0.00%
system.ruby.Directory_Controller.MI.GETX            1      0.00%      0.00%
system.ruby.Directory_Controller.MI.Memory_Ack      2666804      0.00%      0.00%
system.ruby.Directory_Controller.ID.Memory_Data           87      0.00%      0.00%
system.ruby.Directory_Controller.ID_W.Memory_Ack         2965      0.00%      0.00%
system.ruby.DMA_Controller.ReadRequest   |          96    100.00%    100.00% |           0      0.00%    100.00%
system.ruby.DMA_Controller.ReadRequest::total           96                      
system.ruby.DMA_Controller.WriteRequest  |        3008    100.00%    100.00% |           0      0.00%    100.00%
system.ruby.DMA_Controller.WriteRequest::total         3008                      
system.ruby.DMA_Controller.Data          |          96    100.00%    100.00% |           0      0.00%    100.00%
system.ruby.DMA_Controller.Data::total             96                      
system.ruby.DMA_Controller.Ack           |        3008    100.00%    100.00% |           0      0.00%    100.00%
system.ruby.DMA_Controller.Ack::total            3008                      
system.ruby.DMA_Controller.READY.ReadRequest |          96    100.00%    100.00% |           0      0.00%    100.00%
system.ruby.DMA_Controller.READY.ReadRequest::total           96                      
system.ruby.DMA_Controller.READY.WriteRequest |        3008    100.00%    100.00% |           0      0.00%    100.00%
system.ruby.DMA_Controller.READY.WriteRequest::total         3008                      
system.ruby.DMA_Controller.BUSY_RD.Data  |          96    100.00%    100.00% |           0      0.00%    100.00%
system.ruby.DMA_Controller.BUSY_RD.Data::total           96                      
system.ruby.DMA_Controller.BUSY_WR.Ack   |        3008    100.00%    100.00% |           0      0.00%    100.00%
system.ruby.DMA_Controller.BUSY_WR.Ack::total         3008                      
system.ruby.L1Cache_Controller.Load      |     6258946      1.09%      1.09% |   566387250     98.43%     99.52% |     1003073      0.17%     99.69% |     1774012      0.31%    100.00%
system.ruby.L1Cache_Controller.Load::total    575423281                      
system.ruby.L1Cache_Controller.Ifetch    |    30476732      0.00%      0.00% |18446744072221548544    100.00%    100.00% |     4495033      0.00%    100.00% |     9100507      0.00%    100.00%
system.ruby.L1Cache_Controller.Ifetch::total 18446744072265621504                      
system.ruby.L1Cache_Controller.Store     |     2608649      1.47%      1.47% |   172297999     97.37%     98.85% |      726029      0.41%     99.26% |     1314129      0.74%    100.00%
system.ruby.L1Cache_Controller.Store::total    176946806                      
system.ruby.L1Cache_Controller.Data      |      343501      9.60%      9.60% |     2613839     73.06%     82.66% |      280410      7.84%     90.49% |      340121      9.51%    100.00%
system.ruby.L1Cache_Controller.Data::total      3577871                      
system.ruby.L1Cache_Controller.Fwd_GETX  |      269347     29.59%     29.59% |      139735     15.35%     44.95% |      255458     28.07%     73.02% |      245571     26.98%    100.00%
system.ruby.L1Cache_Controller.Fwd_GETX::total       910111                      
system.ruby.L1Cache_Controller.Inv       |          12     11.54%     11.54% |          86     82.69%     94.23% |           0      0.00%     94.23% |           6      5.77%    100.00%
system.ruby.L1Cache_Controller.Inv::total          104                      
system.ruby.L1Cache_Controller.Replacement |       93309      3.42%      3.42% |     2487812     91.09%     94.51% |       39987      1.46%     95.97% |      110008      4.03%    100.00%
system.ruby.L1Cache_Controller.Replacement::total      2731116                      
system.ruby.L1Cache_Controller.Writeback_Ack |       74130      2.78%      2.78% |     2472903     92.73%     95.51% |       26303      0.99%     96.49% |       93520      3.51%    100.00%
system.ruby.L1Cache_Controller.Writeback_Ack::total      2666856                      
system.ruby.L1Cache_Controller.Writeback_Nack |           1     50.00%     50.00% |           0      0.00%     50.00% |           0      0.00%     50.00% |           1     50.00%    100.00%
system.ruby.L1Cache_Controller.Writeback_Nack::total            2                      
system.ruby.L1Cache_Controller.I.Load    |       77263      7.37%      7.37% |      818811     78.15%     85.52% |       60856      5.81%     91.33% |       90856      8.67%    100.00%
system.ruby.L1Cache_Controller.I.Load::total      1047786                      
system.ruby.L1Cache_Controller.I.Ifetch  |      241654     13.19%     13.19% |     1150912     62.82%     76.01% |      211555     11.55%     87.56% |      228003     12.44%    100.00%
system.ruby.L1Cache_Controller.I.Ifetch::total      1832124                      
system.ruby.L1Cache_Controller.I.Store   |       24584      3.52%      3.52% |      644116     92.29%     95.81% |        7999      1.15%     96.95% |       21262      3.05%    100.00%
system.ruby.L1Cache_Controller.I.Store::total       697961                      
system.ruby.L1Cache_Controller.I.Replacement |       19184     29.83%     29.83% |       14952     23.25%     53.08% |       13684     21.28%     74.36% |       16490     25.64%    100.00%
system.ruby.L1Cache_Controller.I.Replacement::total        64310                      
system.ruby.L1Cache_Controller.II.Writeback_Nack |           1     50.00%     50.00% |           0      0.00%     50.00% |           0      0.00%     50.00% |           1     50.00%    100.00%
system.ruby.L1Cache_Controller.II.Writeback_Nack::total            2                      
system.ruby.L1Cache_Controller.M.Load    |     6181683      1.08%      1.08% |   565568439     98.47%     99.54% |      942217      0.16%     99.71% |     1683156      0.29%    100.00%
system.ruby.L1Cache_Controller.M.Load::total    574375495                      
system.ruby.L1Cache_Controller.M.Ifetch  |    30235078      0.00%      0.00% |18446744072220397568    100.00%    100.00% |     4283478      0.00%    100.00% |     8872504      0.00%    100.00%
system.ruby.L1Cache_Controller.M.Ifetch::total 18446744072263788544                      
system.ruby.L1Cache_Controller.M.Store   |     2584065      1.47%      1.47% |   171653883     97.39%     98.86% |      718030      0.41%     99.27% |     1292867      0.73%    100.00%
system.ruby.L1Cache_Controller.M.Store::total    176248845                      
system.ruby.L1Cache_Controller.M.Fwd_GETX |      269346     29.59%     29.59% |      139735     15.35%     44.95% |      255458     28.07%     73.02% |      245570     26.98%    100.00%
system.ruby.L1Cache_Controller.M.Fwd_GETX::total       910109                      
system.ruby.L1Cache_Controller.M.Inv     |           6     11.54%     11.54% |          43     82.69%     94.23% |           0      0.00%     94.23% |           3      5.77%    100.00%
system.ruby.L1Cache_Controller.M.Inv::total           52                      
system.ruby.L1Cache_Controller.M.Replacement |       74125      2.78%      2.78% |     2472860     92.73%     95.51% |       26303      0.99%     96.49% |       93518      3.51%    100.00%
system.ruby.L1Cache_Controller.M.Replacement::total      2666806                      
system.ruby.L1Cache_Controller.MI.Fwd_GETX |           1     50.00%     50.00% |           0      0.00%     50.00% |           0      0.00%     50.00% |           1     50.00%    100.00%
system.ruby.L1Cache_Controller.MI.Fwd_GETX::total            2                      
system.ruby.L1Cache_Controller.MI.Inv    |           6     11.54%     11.54% |          43     82.69%     94.23% |           0      0.00%     94.23% |           3      5.77%    100.00%
system.ruby.L1Cache_Controller.MI.Inv::total           52                      
system.ruby.L1Cache_Controller.MI.Writeback_Ack |       74130      2.78%      2.78% |     2472903     92.73%     95.51% |       26303      0.99%     96.49% |       93520      3.51%    100.00%
system.ruby.L1Cache_Controller.MI.Writeback_Ack::total      2666856                      
system.ruby.L1Cache_Controller.IS.Data   |      318917     11.07%     11.07% |     1969723     68.40%     79.47% |      272411      9.46%     88.93% |      318859     11.07%    100.00%
system.ruby.L1Cache_Controller.IS.Data::total      2879910                      
system.ruby.L1Cache_Controller.IM.Data   |       24584      3.52%      3.52% |      644116     92.29%     95.81% |        7999      1.15%     96.95% |       21262      3.05%    100.00%
system.ruby.L1Cache_Controller.IM.Data::total       697961                      

---------- End Simulation Statistics   ----------
