
---------- Begin Simulation Statistics ----------
sim_seconds                                  2.340773                       # Number of seconds simulated
sim_ticks                                2340772581000                       # Number of ticks simulated
final_tick                               55167424118501                       # Number of ticks from beginning of simulation (restored from checkpoints and never reset)
sim_freq                                 1000000000000                       # Frequency of simulated ticks
host_inst_rate                                 139750                       # Simulator instruction rate (inst/s)
host_op_rate                                   253319                       # Simulator op (including micro ops) rate (op/s)
host_tick_rate                              249177829                       # Simulator tick rate (ticks/s)
host_mem_usage                                2014308                       # Number of bytes of host memory used
host_seconds                                  9393.98                       # Real time elapsed on the host
sim_insts                                  1312812870                       # Number of instructions simulated
sim_ops                                    2379672037                       # Number of ops (including micro ops) simulated
system.voltage_domain.voltage                       1                       # Voltage in Volts
system.clk_domain.clock                          1000                       # Clock period in ticks
system.mem_ctrls.bytes_read::ruby.dir_cntrl0     72092800                       # Number of bytes read from this memory
system.mem_ctrls.bytes_read::total           72092800                       # Number of bytes read from this memory
system.mem_ctrls.bytes_written::ruby.dir_cntrl0     38199488                       # Number of bytes written to this memory
system.mem_ctrls.bytes_written::total        38199488                       # Number of bytes written to this memory
system.mem_ctrls.num_reads::ruby.dir_cntrl0      1126450                       # Number of read requests responded to by this memory
system.mem_ctrls.num_reads::total             1126450                       # Number of read requests responded to by this memory
system.mem_ctrls.num_writes::ruby.dir_cntrl0       596867                       # Number of write requests responded to by this memory
system.mem_ctrls.num_writes::total             596867                       # Number of write requests responded to by this memory
system.mem_ctrls.bw_read::ruby.dir_cntrl0     30798720                       # Total read bandwidth from this memory (bytes/s)
system.mem_ctrls.bw_read::total              30798720                       # Total read bandwidth from this memory (bytes/s)
system.mem_ctrls.bw_write::ruby.dir_cntrl0     16319180                       # Write bandwidth from this memory (bytes/s)
system.mem_ctrls.bw_write::total             16319180                       # Write bandwidth from this memory (bytes/s)
system.mem_ctrls.bw_total::ruby.dir_cntrl0     47117900                       # Total bandwidth to/from this memory (bytes/s)
system.mem_ctrls.bw_total::total             47117900                       # Total bandwidth to/from this memory (bytes/s)
system.mem_ctrls.readReqs                     1126450                       # Number of read requests accepted
system.mem_ctrls.writeReqs                     596867                       # Number of write requests accepted
system.mem_ctrls.readBursts                   1126450                       # Number of DRAM read bursts, including those serviced by the write queue
system.mem_ctrls.writeBursts                   596867                       # Number of DRAM write bursts, including those merged in the write queue
system.mem_ctrls.bytesReadDRAM               72054848                       # Total number of bytes read from DRAM
system.mem_ctrls.bytesReadWrQ                   37952                       # Total number of bytes read from write queue
system.mem_ctrls.bytesWritten                38198976                       # Total number of bytes written to DRAM
system.mem_ctrls.bytesReadSys                72092800                       # Total read bytes from the system interface side
system.mem_ctrls.bytesWrittenSys             38199488                       # Total written bytes from the system interface side
system.mem_ctrls.servicedByWrQ                    593                       # Number of DRAM read bursts serviced by the write queue
system.mem_ctrls.mergedWrBursts                     0                       # Number of DRAM write bursts merged with an existing one
system.mem_ctrls.neitherReadNorWriteReqs            0                       # Number of requests that are neither read nor write
system.mem_ctrls.perBankRdBursts::0             69233                       # Per bank write bursts
system.mem_ctrls.perBankRdBursts::1             72190                       # Per bank write bursts
system.mem_ctrls.perBankRdBursts::2             70212                       # Per bank write bursts
system.mem_ctrls.perBankRdBursts::3             68490                       # Per bank write bursts
system.mem_ctrls.perBankRdBursts::4             70766                       # Per bank write bursts
system.mem_ctrls.perBankRdBursts::5             70303                       # Per bank write bursts
system.mem_ctrls.perBankRdBursts::6             70478                       # Per bank write bursts
system.mem_ctrls.perBankRdBursts::7             69988                       # Per bank write bursts
system.mem_ctrls.perBankRdBursts::8             71744                       # Per bank write bursts
system.mem_ctrls.perBankRdBursts::9             70860                       # Per bank write bursts
system.mem_ctrls.perBankRdBursts::10            67757                       # Per bank write bursts
system.mem_ctrls.perBankRdBursts::11            70902                       # Per bank write bursts
system.mem_ctrls.perBankRdBursts::12            70385                       # Per bank write bursts
system.mem_ctrls.perBankRdBursts::13            68965                       # Per bank write bursts
system.mem_ctrls.perBankRdBursts::14            72597                       # Per bank write bursts
system.mem_ctrls.perBankRdBursts::15            70987                       # Per bank write bursts
system.mem_ctrls.perBankWrBursts::0             37087                       # Per bank write bursts
system.mem_ctrls.perBankWrBursts::1             37976                       # Per bank write bursts
system.mem_ctrls.perBankWrBursts::2             37032                       # Per bank write bursts
system.mem_ctrls.perBankWrBursts::3             36627                       # Per bank write bursts
system.mem_ctrls.perBankWrBursts::4             37494                       # Per bank write bursts
system.mem_ctrls.perBankWrBursts::5             37181                       # Per bank write bursts
system.mem_ctrls.perBankWrBursts::6             37174                       # Per bank write bursts
system.mem_ctrls.perBankWrBursts::7             36919                       # Per bank write bursts
system.mem_ctrls.perBankWrBursts::8             37659                       # Per bank write bursts
system.mem_ctrls.perBankWrBursts::9             37685                       # Per bank write bursts
system.mem_ctrls.perBankWrBursts::10            36205                       # Per bank write bursts
system.mem_ctrls.perBankWrBursts::11            37688                       # Per bank write bursts
system.mem_ctrls.perBankWrBursts::12            37389                       # Per bank write bursts
system.mem_ctrls.perBankWrBursts::13            36930                       # Per bank write bursts
system.mem_ctrls.perBankWrBursts::14            38240                       # Per bank write bursts
system.mem_ctrls.perBankWrBursts::15            37573                       # Per bank write bursts
system.mem_ctrls.numRdRetry                         0                       # Number of times read queue was full causing retry
system.mem_ctrls.numWrRetry                         0                       # Number of times write queue was full causing retry
system.mem_ctrls.totGap                  2340772510000                       # Total gap between requests
system.mem_ctrls.readPktSize::0                     0                       # Read request sizes (log2)
system.mem_ctrls.readPktSize::1                     0                       # Read request sizes (log2)
system.mem_ctrls.readPktSize::2                     0                       # Read request sizes (log2)
system.mem_ctrls.readPktSize::3                     0                       # Read request sizes (log2)
system.mem_ctrls.readPktSize::4                     0                       # Read request sizes (log2)
system.mem_ctrls.readPktSize::5                     0                       # Read request sizes (log2)
system.mem_ctrls.readPktSize::6               1126450                       # Read request sizes (log2)
system.mem_ctrls.writePktSize::0                    0                       # Write request sizes (log2)
system.mem_ctrls.writePktSize::1                    0                       # Write request sizes (log2)
system.mem_ctrls.writePktSize::2                    0                       # Write request sizes (log2)
system.mem_ctrls.writePktSize::3                    0                       # Write request sizes (log2)
system.mem_ctrls.writePktSize::4                    0                       # Write request sizes (log2)
system.mem_ctrls.writePktSize::5                    0                       # Write request sizes (log2)
system.mem_ctrls.writePktSize::6               596867                       # Write request sizes (log2)
system.mem_ctrls.rdQLenPdf::0                 1124696                       # What read queue length does an incoming req see
system.mem_ctrls.rdQLenPdf::1                    1148                       # What read queue length does an incoming req see
system.mem_ctrls.rdQLenPdf::2                      13                       # What read queue length does an incoming req see
system.mem_ctrls.rdQLenPdf::3                       0                       # What read queue length does an incoming req see
system.mem_ctrls.rdQLenPdf::4                       0                       # What read queue length does an incoming req see
system.mem_ctrls.rdQLenPdf::5                       0                       # What read queue length does an incoming req see
system.mem_ctrls.rdQLenPdf::6                       0                       # What read queue length does an incoming req see
system.mem_ctrls.rdQLenPdf::7                       0                       # What read queue length does an incoming req see
system.mem_ctrls.rdQLenPdf::8                       0                       # What read queue length does an incoming req see
system.mem_ctrls.rdQLenPdf::9                       0                       # What read queue length does an incoming req see
system.mem_ctrls.rdQLenPdf::10                      0                       # What read queue length does an incoming req see
system.mem_ctrls.rdQLenPdf::11                      0                       # What read queue length does an incoming req see
system.mem_ctrls.rdQLenPdf::12                      0                       # What read queue length does an incoming req see
system.mem_ctrls.rdQLenPdf::13                      0                       # What read queue length does an incoming req see
system.mem_ctrls.rdQLenPdf::14                      0                       # What read queue length does an incoming req see
system.mem_ctrls.rdQLenPdf::15                      0                       # What read queue length does an incoming req see
system.mem_ctrls.rdQLenPdf::16                      0                       # What read queue length does an incoming req see
system.mem_ctrls.rdQLenPdf::17                      0                       # What read queue length does an incoming req see
system.mem_ctrls.rdQLenPdf::18                      0                       # What read queue length does an incoming req see
system.mem_ctrls.rdQLenPdf::19                      0                       # What read queue length does an incoming req see
system.mem_ctrls.rdQLenPdf::20                      0                       # What read queue length does an incoming req see
system.mem_ctrls.rdQLenPdf::21                      0                       # What read queue length does an incoming req see
system.mem_ctrls.rdQLenPdf::22                      0                       # What read queue length does an incoming req see
system.mem_ctrls.rdQLenPdf::23                      0                       # What read queue length does an incoming req see
system.mem_ctrls.rdQLenPdf::24                      0                       # What read queue length does an incoming req see
system.mem_ctrls.rdQLenPdf::25                      0                       # What read queue length does an incoming req see
system.mem_ctrls.rdQLenPdf::26                      0                       # What read queue length does an incoming req see
system.mem_ctrls.rdQLenPdf::27                      0                       # What read queue length does an incoming req see
system.mem_ctrls.rdQLenPdf::28                      0                       # What read queue length does an incoming req see
system.mem_ctrls.rdQLenPdf::29                      0                       # What read queue length does an incoming req see
system.mem_ctrls.rdQLenPdf::30                      0                       # What read queue length does an incoming req see
system.mem_ctrls.rdQLenPdf::31                      0                       # What read queue length does an incoming req see
system.mem_ctrls.wrQLenPdf::0                       0                       # What write queue length does an incoming req see
system.mem_ctrls.wrQLenPdf::1                       0                       # What write queue length does an incoming req see
system.mem_ctrls.wrQLenPdf::2                       0                       # What write queue length does an incoming req see
system.mem_ctrls.wrQLenPdf::3                       0                       # What write queue length does an incoming req see
system.mem_ctrls.wrQLenPdf::4                       0                       # What write queue length does an incoming req see
system.mem_ctrls.wrQLenPdf::5                       0                       # What write queue length does an incoming req see
system.mem_ctrls.wrQLenPdf::6                       0                       # What write queue length does an incoming req see
system.mem_ctrls.wrQLenPdf::7                       0                       # What write queue length does an incoming req see
system.mem_ctrls.wrQLenPdf::8                       0                       # What write queue length does an incoming req see
system.mem_ctrls.wrQLenPdf::9                       0                       # What write queue length does an incoming req see
system.mem_ctrls.wrQLenPdf::10                      0                       # What write queue length does an incoming req see
system.mem_ctrls.wrQLenPdf::11                      0                       # What write queue length does an incoming req see
system.mem_ctrls.wrQLenPdf::12                      0                       # What write queue length does an incoming req see
system.mem_ctrls.wrQLenPdf::13                      1                       # What write queue length does an incoming req see
system.mem_ctrls.wrQLenPdf::14                      1                       # What write queue length does an incoming req see
system.mem_ctrls.wrQLenPdf::15                  21250                       # What write queue length does an incoming req see
system.mem_ctrls.wrQLenPdf::16                  22257                       # What write queue length does an incoming req see
system.mem_ctrls.wrQLenPdf::17                  30794                       # What write queue length does an incoming req see
system.mem_ctrls.wrQLenPdf::18                  35046                       # What write queue length does an incoming req see
system.mem_ctrls.wrQLenPdf::19                  35427                       # What write queue length does an incoming req see
system.mem_ctrls.wrQLenPdf::20                  35187                       # What write queue length does an incoming req see
system.mem_ctrls.wrQLenPdf::21                  35058                       # What write queue length does an incoming req see
system.mem_ctrls.wrQLenPdf::22                  34945                       # What write queue length does an incoming req see
system.mem_ctrls.wrQLenPdf::23                  34893                       # What write queue length does an incoming req see
system.mem_ctrls.wrQLenPdf::24                  34776                       # What write queue length does an incoming req see
system.mem_ctrls.wrQLenPdf::25                  34757                       # What write queue length does an incoming req see
system.mem_ctrls.wrQLenPdf::26                  34779                       # What write queue length does an incoming req see
system.mem_ctrls.wrQLenPdf::27                  34687                       # What write queue length does an incoming req see
system.mem_ctrls.wrQLenPdf::28                  34652                       # What write queue length does an incoming req see
system.mem_ctrls.wrQLenPdf::29                  34697                       # What write queue length does an incoming req see
system.mem_ctrls.wrQLenPdf::30                  34541                       # What write queue length does an incoming req see
system.mem_ctrls.wrQLenPdf::31                  34513                       # What write queue length does an incoming req see
system.mem_ctrls.wrQLenPdf::32                  34507                       # What write queue length does an incoming req see
system.mem_ctrls.wrQLenPdf::33                     78                       # What write queue length does an incoming req see
system.mem_ctrls.wrQLenPdf::34                     12                       # What write queue length does an incoming req see
system.mem_ctrls.wrQLenPdf::35                      5                       # What write queue length does an incoming req see
system.mem_ctrls.wrQLenPdf::36                      2                       # What write queue length does an incoming req see
system.mem_ctrls.wrQLenPdf::37                      1                       # What write queue length does an incoming req see
system.mem_ctrls.wrQLenPdf::38                      1                       # What write queue length does an incoming req see
system.mem_ctrls.wrQLenPdf::39                      0                       # What write queue length does an incoming req see
system.mem_ctrls.wrQLenPdf::40                      0                       # What write queue length does an incoming req see
system.mem_ctrls.wrQLenPdf::41                      0                       # What write queue length does an incoming req see
system.mem_ctrls.wrQLenPdf::42                      0                       # What write queue length does an incoming req see
system.mem_ctrls.wrQLenPdf::43                      0                       # What write queue length does an incoming req see
system.mem_ctrls.wrQLenPdf::44                      0                       # What write queue length does an incoming req see
system.mem_ctrls.wrQLenPdf::45                      0                       # What write queue length does an incoming req see
system.mem_ctrls.wrQLenPdf::46                      0                       # What write queue length does an incoming req see
system.mem_ctrls.wrQLenPdf::47                      0                       # What write queue length does an incoming req see
system.mem_ctrls.wrQLenPdf::48                      0                       # What write queue length does an incoming req see
system.mem_ctrls.wrQLenPdf::49                      0                       # What write queue length does an incoming req see
system.mem_ctrls.wrQLenPdf::50                      0                       # What write queue length does an incoming req see
system.mem_ctrls.wrQLenPdf::51                      0                       # What write queue length does an incoming req see
system.mem_ctrls.wrQLenPdf::52                      0                       # What write queue length does an incoming req see
system.mem_ctrls.wrQLenPdf::53                      0                       # What write queue length does an incoming req see
system.mem_ctrls.wrQLenPdf::54                      0                       # What write queue length does an incoming req see
system.mem_ctrls.wrQLenPdf::55                      0                       # What write queue length does an incoming req see
system.mem_ctrls.wrQLenPdf::56                      0                       # What write queue length does an incoming req see
system.mem_ctrls.wrQLenPdf::57                      0                       # What write queue length does an incoming req see
system.mem_ctrls.wrQLenPdf::58                      0                       # What write queue length does an incoming req see
system.mem_ctrls.wrQLenPdf::59                      0                       # What write queue length does an incoming req see
system.mem_ctrls.wrQLenPdf::60                      0                       # What write queue length does an incoming req see
system.mem_ctrls.wrQLenPdf::61                      0                       # What write queue length does an incoming req see
system.mem_ctrls.wrQLenPdf::62                      0                       # What write queue length does an incoming req see
system.mem_ctrls.wrQLenPdf::63                      0                       # What write queue length does an incoming req see
system.mem_ctrls.bytesPerActivate::samples       676949                       # Bytes accessed per row activation
system.mem_ctrls.bytesPerActivate::mean    162.868919                       # Bytes accessed per row activation
system.mem_ctrls.bytesPerActivate::gmean   110.006275                       # Bytes accessed per row activation
system.mem_ctrls.bytesPerActivate::stdev   202.974225                       # Bytes accessed per row activation
system.mem_ctrls.bytesPerActivate::0-127       394582     58.29%     58.29% # Bytes accessed per row activation
system.mem_ctrls.bytesPerActivate::128-255       155513     22.97%     81.26% # Bytes accessed per row activation
system.mem_ctrls.bytesPerActivate::256-383        73150     10.81%     92.07% # Bytes accessed per row activation
system.mem_ctrls.bytesPerActivate::384-511        10206      1.51%     93.57% # Bytes accessed per row activation
system.mem_ctrls.bytesPerActivate::512-639         7466      1.10%     94.68% # Bytes accessed per row activation
system.mem_ctrls.bytesPerActivate::640-767         6444      0.95%     95.63% # Bytes accessed per row activation
system.mem_ctrls.bytesPerActivate::768-895         5606      0.83%     96.46% # Bytes accessed per row activation
system.mem_ctrls.bytesPerActivate::896-1023         4457      0.66%     97.12% # Bytes accessed per row activation
system.mem_ctrls.bytesPerActivate::1024-1151        19525      2.88%    100.00% # Bytes accessed per row activation
system.mem_ctrls.bytesPerActivate::total       676949                       # Bytes accessed per row activation
system.mem_ctrls.rdPerTurnAround::samples        34506                       # Reads before turning the bus around for writes
system.mem_ctrls.rdPerTurnAround::mean      34.286501                       # Reads before turning the bus around for writes
system.mem_ctrls.rdPerTurnAround::stdev    322.255688                       # Reads before turning the bus around for writes
system.mem_ctrls.rdPerTurnAround::0-2047        34500     99.98%     99.98% # Reads before turning the bus around for writes
system.mem_ctrls.rdPerTurnAround::2048-4095            5      0.01%    100.00% # Reads before turning the bus around for writes
system.mem_ctrls.rdPerTurnAround::59392-61439            1      0.00%    100.00% # Reads before turning the bus around for writes
system.mem_ctrls.rdPerTurnAround::total         34506                       # Reads before turning the bus around for writes
system.mem_ctrls.wrPerTurnAround::samples        34506                       # Writes before turning the bus around for reads
system.mem_ctrls.wrPerTurnAround::mean      17.297253                       # Writes before turning the bus around for reads
system.mem_ctrls.wrPerTurnAround::gmean     17.267431                       # Writes before turning the bus around for reads
system.mem_ctrls.wrPerTurnAround::stdev      1.010280                       # Writes before turning the bus around for reads
system.mem_ctrls.wrPerTurnAround::16            12317     35.70%     35.70% # Writes before turning the bus around for reads
system.mem_ctrls.wrPerTurnAround::17              840      2.43%     38.13% # Writes before turning the bus around for reads
system.mem_ctrls.wrPerTurnAround::18            20390     59.09%     97.22% # Writes before turning the bus around for reads
system.mem_ctrls.wrPerTurnAround::19              800      2.32%     99.54% # Writes before turning the bus around for reads
system.mem_ctrls.wrPerTurnAround::20              100      0.29%     99.83% # Writes before turning the bus around for reads
system.mem_ctrls.wrPerTurnAround::21               34      0.10%     99.93% # Writes before turning the bus around for reads
system.mem_ctrls.wrPerTurnAround::22               14      0.04%     99.97% # Writes before turning the bus around for reads
system.mem_ctrls.wrPerTurnAround::23                4      0.01%     99.98% # Writes before turning the bus around for reads
system.mem_ctrls.wrPerTurnAround::24                4      0.01%     99.99% # Writes before turning the bus around for reads
system.mem_ctrls.wrPerTurnAround::25                1      0.00%     99.99% # Writes before turning the bus around for reads
system.mem_ctrls.wrPerTurnAround::26                2      0.01%    100.00% # Writes before turning the bus around for reads
system.mem_ctrls.wrPerTurnAround::total         34506                       # Writes before turning the bus around for reads
system.mem_ctrls.totQLat                   8999027747                       # Total ticks spent queuing
system.mem_ctrls.totMemAccLat             30108846497                       # Total ticks spent from burst creation until serviced by the DRAM
system.mem_ctrls.totBusLat                 5629285000                       # Total ticks spent in databus transfers
system.mem_ctrls.avgQLat                      7993.05                       # Average queueing delay per DRAM burst
system.mem_ctrls.avgBusLat                    5000.00                       # Average bus latency per DRAM burst
system.mem_ctrls.avgMemAccLat                26743.05                       # Average memory access latency per DRAM burst
system.mem_ctrls.avgRdBW                        30.78                       # Average DRAM read bandwidth in MiByte/s
system.mem_ctrls.avgWrBW                        16.32                       # Average achieved write bandwidth in MiByte/s
system.mem_ctrls.avgRdBWSys                     30.80                       # Average system read bandwidth in MiByte/s
system.mem_ctrls.avgWrBWSys                     16.32                       # Average system write bandwidth in MiByte/s
system.mem_ctrls.peakBW                      12800.00                       # Theoretical peak bandwidth in MiByte/s
system.mem_ctrls.busUtil                         0.37                       # Data bus utilization in percentage
system.mem_ctrls.busUtilRead                     0.24                       # Data bus utilization in percentage for reads
system.mem_ctrls.busUtilWrite                    0.13                       # Data bus utilization in percentage for writes
system.mem_ctrls.avgRdQLen                       1.00                       # Average read queue length when enqueuing
system.mem_ctrls.avgWrQLen                      24.54                       # Average write queue length when enqueuing
system.mem_ctrls.readRowHits                   869948                       # Number of row buffer hits during reads
system.mem_ctrls.writeRowHits                  175819                       # Number of row buffer hits during writes
system.mem_ctrls.readRowHitRate                 77.27                       # Row buffer hit rate for reads
system.mem_ctrls.writeRowHitRate                29.46                       # Row buffer hit rate for writes
system.mem_ctrls.avgGap                    1358294.79                       # Average gap between requests
system.mem_ctrls.pageHitRate                    60.70                       # Row buffer hit rate, read and write combined
system.mem_ctrls_0.actEnergy               2567406240                       # Energy for activate commands per rank (pJ)
system.mem_ctrls_0.preEnergy               1400866500                       # Energy for precharge commands per rank (pJ)
system.mem_ctrls_0.readEnergy              4601953200                       # Energy for read commands per rank (pJ)
system.mem_ctrls_0.writeEnergy             1927722240                       # Energy for write commands per rank (pJ)
system.mem_ctrls_0.refreshEnergy         153686323440                       # Energy for refresh commands per rank (pJ)
system.mem_ctrls_0.actBackEnergy         269662370175                       # Energy for active background per rank (pJ)
system.mem_ctrls_0.preBackEnergy         1175252403750                       # Energy for precharge background per rank (pJ)
system.mem_ctrls_0.totalEnergy           1609099045545                       # Total energy per rank (pJ)
system.mem_ctrls_0.averagePower            683.850801                       # Core power per rank (mW)
system.mem_ctrls_0.memoryStateTime::IDLE 1947165123750                       # Time in different power states
system.mem_ctrls_0.memoryStateTime::REF   78163540000                       # Time in different power states
system.mem_ctrls_0.memoryStateTime::PRE_PDN            0                       # Time in different power states
system.mem_ctrls_0.memoryStateTime::ACT  315444026250                       # Time in different power states
system.mem_ctrls_0.memoryStateTime::ACT_PDN            0                       # Time in different power states
system.mem_ctrls_1.actEnergy               2611155960                       # Energy for activate commands per rank (pJ)
system.mem_ctrls_1.preEnergy               1424737875                       # Energy for precharge commands per rank (pJ)
system.mem_ctrls_1.readEnergy              4626148800                       # Energy for read commands per rank (pJ)
system.mem_ctrls_1.writeEnergy             1939911120                       # Energy for write commands per rank (pJ)
system.mem_ctrls_1.refreshEnergy         153686323440                       # Energy for refresh commands per rank (pJ)
system.mem_ctrls_1.actBackEnergy         268508580165                       # Energy for active background per rank (pJ)
system.mem_ctrls_1.preBackEnergy         1176264529500                       # Energy for precharge background per rank (pJ)
system.mem_ctrls_1.totalEnergy           1609061386860                       # Total energy per rank (pJ)
system.mem_ctrls_1.averagePower            683.834782                       # Core power per rank (mW)
system.mem_ctrls_1.memoryStateTime::IDLE 1950383652000                       # Time in different power states
system.mem_ctrls_1.memoryStateTime::REF   78163540000                       # Time in different power states
system.mem_ctrls_1.memoryStateTime::PRE_PDN            0                       # Time in different power states
system.mem_ctrls_1.memoryStateTime::ACT  312225421500                       # Time in different power states
system.mem_ctrls_1.memoryStateTime::ACT_PDN            0                       # Time in different power states
system.cpu_voltage_domain.voltage                   1                       # Voltage in Volts
system.cpu_clk_domain.clock                       500                       # Clock period in ticks
system.cpu0.apic_clk_domain.clock                8000                       # Clock period in ticks
system.cpu0.numCycles                      4678222569                       # number of cpu cycles simulated
system.cpu0.numWorkItemsStarted                     0                       # number of work items this cpu started
system.cpu0.numWorkItemsCompleted                   0                       # number of work items this cpu completed
system.cpu0.kern.inst.arm                           0                       # number of arm instructions executed
system.cpu0.kern.inst.quiesce                       0                       # number of quiesce instructions executed
system.cpu0.committedInsts                 1297382448                       # Number of instructions committed
system.cpu0.committedOps                   2348587452                       # Number of ops (including micro ops) committed
system.cpu0.num_int_alu_accesses           1506618381                       # Number of integer alu accesses
system.cpu0.num_fp_alu_accesses            1130300403                       # Number of float alu accesses
system.cpu0.num_func_calls                     801556                       # number of times a function call or return occured
system.cpu0.num_conditional_control_insts    160855546                       # number of instructions that are conditional controls
system.cpu0.num_int_insts                  1506618381                       # number of integer instructions
system.cpu0.num_fp_insts                   1130300403                       # number of float instructions
system.cpu0.num_int_register_reads         2939937502                       # number of times the integer registers were read
system.cpu0.num_int_register_writes        1033709179                       # number of times the integer registers were written
system.cpu0.num_fp_register_reads          1382500491                       # number of times the floating registers were read
system.cpu0.num_fp_register_writes         1075410492                       # number of times the floating registers were written
system.cpu0.num_cc_register_reads           938928218                       # number of times the CC registers were read
system.cpu0.num_cc_register_writes          528022297                       # number of times the CC registers were written
system.cpu0.num_mem_refs                    388301149                       # number of memory refs
system.cpu0.num_load_insts                  349925256                       # Number of load instructions
system.cpu0.num_store_insts                  38375893                       # Number of store instructions
system.cpu0.num_idle_cycles              24407919.874700                       # Number of idle cycles
system.cpu0.num_busy_cycles              4653814649.125299                       # Number of busy cycles
system.cpu0.not_idle_fraction                0.994783                       # Percentage of non-idle cycles
system.cpu0.idle_fraction                    0.005217                       # Percentage of idle cycles
system.cpu0.Branches                        166246788                       # Number of branches fetched
system.cpu0.op_class::No_OpClass              3900944      0.17%      0.17% # Class of executed instruction
system.cpu0.op_class::IntAlu               1228691001     52.32%     52.48% # Class of executed instruction
system.cpu0.op_class::IntMult                 4265648      0.18%     52.66% # Class of executed instruction
system.cpu0.op_class::IntDiv                      692      0.00%     52.66% # Class of executed instruction
system.cpu0.op_class::FloatAdd              723444344     30.80%     83.47% # Class of executed instruction
system.cpu0.op_class::FloatCmp                      0      0.00%     83.47% # Class of executed instruction
system.cpu0.op_class::FloatCvt                      0      0.00%     83.47% # Class of executed instruction
system.cpu0.op_class::FloatMult                     0      0.00%     83.47% # Class of executed instruction
system.cpu0.op_class::FloatDiv                      0      0.00%     83.47% # Class of executed instruction
system.cpu0.op_class::FloatSqrt                     0      0.00%     83.47% # Class of executed instruction
system.cpu0.op_class::SimdAdd                       0      0.00%     83.47% # Class of executed instruction
system.cpu0.op_class::SimdAddAcc                    0      0.00%     83.47% # Class of executed instruction
system.cpu0.op_class::SimdAlu                       0      0.00%     83.47% # Class of executed instruction
system.cpu0.op_class::SimdCmp                       0      0.00%     83.47% # Class of executed instruction
system.cpu0.op_class::SimdCvt                       0      0.00%     83.47% # Class of executed instruction
system.cpu0.op_class::SimdMisc                      0      0.00%     83.47% # Class of executed instruction
system.cpu0.op_class::SimdMult                      0      0.00%     83.47% # Class of executed instruction
system.cpu0.op_class::SimdMultAcc                   0      0.00%     83.47% # Class of executed instruction
system.cpu0.op_class::SimdShift                     0      0.00%     83.47% # Class of executed instruction
system.cpu0.op_class::SimdShiftAcc                  0      0.00%     83.47% # Class of executed instruction
system.cpu0.op_class::SimdSqrt                      0      0.00%     83.47% # Class of executed instruction
system.cpu0.op_class::SimdFloatAdd                  0      0.00%     83.47% # Class of executed instruction
system.cpu0.op_class::SimdFloatAlu                  0      0.00%     83.47% # Class of executed instruction
system.cpu0.op_class::SimdFloatCmp                  0      0.00%     83.47% # Class of executed instruction
system.cpu0.op_class::SimdFloatCvt                  0      0.00%     83.47% # Class of executed instruction
system.cpu0.op_class::SimdFloatDiv                  0      0.00%     83.47% # Class of executed instruction
system.cpu0.op_class::SimdFloatMisc                 0      0.00%     83.47% # Class of executed instruction
system.cpu0.op_class::SimdFloatMult                 0      0.00%     83.47% # Class of executed instruction
system.cpu0.op_class::SimdFloatMultAcc              0      0.00%     83.47% # Class of executed instruction
system.cpu0.op_class::SimdFloatSqrt                 0      0.00%     83.47% # Class of executed instruction
system.cpu0.op_class::MemRead               349925256     14.90%     98.37% # Class of executed instruction
system.cpu0.op_class::MemWrite               38375893      1.63%    100.00% # Class of executed instruction
system.cpu0.op_class::IprAccess                     0      0.00%    100.00% # Class of executed instruction
system.cpu0.op_class::InstPrefetch                  0      0.00%    100.00% # Class of executed instruction
system.cpu0.op_class::total                2348603778                       # Class of executed instruction
system.cpu1.apic_clk_domain.clock                8000                       # Clock period in ticks
system.cpu1.numCycles                      4679619870                       # number of cpu cycles simulated
system.cpu1.numWorkItemsStarted                     0                       # number of work items this cpu started
system.cpu1.numWorkItemsCompleted                   0                       # number of work items this cpu completed
system.cpu1.kern.inst.arm                           0                       # number of arm instructions executed
system.cpu1.kern.inst.quiesce                       0                       # number of quiesce instructions executed
system.cpu1.committedInsts                    5146098                       # Number of instructions committed
system.cpu1.committedOps                     10320782                       # Number of ops (including micro ops) committed
system.cpu1.num_int_alu_accesses             10139277                       # Number of integer alu accesses
system.cpu1.num_fp_alu_accesses                  1893                       # Number of float alu accesses
system.cpu1.num_func_calls                     262849                       # number of times a function call or return occured
system.cpu1.num_conditional_control_insts       897858                       # number of instructions that are conditional controls
system.cpu1.num_int_insts                    10139277                       # number of integer instructions
system.cpu1.num_fp_insts                         1893                       # number of float instructions
system.cpu1.num_int_register_reads           19996792                       # number of times the integer registers were read
system.cpu1.num_int_register_writes           8248894                       # number of times the integer registers were written
system.cpu1.num_fp_register_reads                3183                       # number of times the floating registers were read
system.cpu1.num_fp_register_writes               1511                       # number of times the floating registers were written
system.cpu1.num_cc_register_reads             6648229                       # number of times the CC registers were read
system.cpu1.num_cc_register_writes            3535975                       # number of times the CC registers were written
system.cpu1.num_mem_refs                      2264110                       # number of memory refs
system.cpu1.num_load_insts                    1471455                       # Number of load instructions
system.cpu1.num_store_insts                    792655                       # Number of store instructions
system.cpu1.num_idle_cycles              4657606091.939718                       # Number of idle cycles
system.cpu1.num_busy_cycles              22013778.060282                       # Number of busy cycles
system.cpu1.not_idle_fraction                0.004704                       # Percentage of non-idle cycles
system.cpu1.idle_fraction                    0.995296                       # Percentage of idle cycles
system.cpu1.Branches                          1211792                       # Number of branches fetched
system.cpu1.op_class::No_OpClass                74209      0.72%      0.72% # Class of executed instruction
system.cpu1.op_class::IntAlu                  7947490     77.00%     77.72% # Class of executed instruction
system.cpu1.op_class::IntMult                   11588      0.11%     77.84% # Class of executed instruction
system.cpu1.op_class::IntDiv                    22042      0.21%     78.05% # Class of executed instruction
system.cpu1.op_class::FloatAdd                   1434      0.01%     78.06% # Class of executed instruction
system.cpu1.op_class::FloatCmp                      0      0.00%     78.06% # Class of executed instruction
system.cpu1.op_class::FloatCvt                      0      0.00%     78.06% # Class of executed instruction
system.cpu1.op_class::FloatMult                     0      0.00%     78.06% # Class of executed instruction
system.cpu1.op_class::FloatDiv                      0      0.00%     78.06% # Class of executed instruction
system.cpu1.op_class::FloatSqrt                     0      0.00%     78.06% # Class of executed instruction
system.cpu1.op_class::SimdAdd                       0      0.00%     78.06% # Class of executed instruction
system.cpu1.op_class::SimdAddAcc                    0      0.00%     78.06% # Class of executed instruction
system.cpu1.op_class::SimdAlu                       0      0.00%     78.06% # Class of executed instruction
system.cpu1.op_class::SimdCmp                       0      0.00%     78.06% # Class of executed instruction
system.cpu1.op_class::SimdCvt                       0      0.00%     78.06% # Class of executed instruction
system.cpu1.op_class::SimdMisc                      0      0.00%     78.06% # Class of executed instruction
system.cpu1.op_class::SimdMult                      0      0.00%     78.06% # Class of executed instruction
system.cpu1.op_class::SimdMultAcc                   0      0.00%     78.06% # Class of executed instruction
system.cpu1.op_class::SimdShift                     0      0.00%     78.06% # Class of executed instruction
system.cpu1.op_class::SimdShiftAcc                  0      0.00%     78.06% # Class of executed instruction
system.cpu1.op_class::SimdSqrt                      0      0.00%     78.06% # Class of executed instruction
system.cpu1.op_class::SimdFloatAdd                  0      0.00%     78.06% # Class of executed instruction
system.cpu1.op_class::SimdFloatAlu                  0      0.00%     78.06% # Class of executed instruction
system.cpu1.op_class::SimdFloatCmp                  0      0.00%     78.06% # Class of executed instruction
system.cpu1.op_class::SimdFloatCvt                  0      0.00%     78.06% # Class of executed instruction
system.cpu1.op_class::SimdFloatDiv                  0      0.00%     78.06% # Class of executed instruction
system.cpu1.op_class::SimdFloatMisc                 0      0.00%     78.06% # Class of executed instruction
system.cpu1.op_class::SimdFloatMult                 0      0.00%     78.06% # Class of executed instruction
system.cpu1.op_class::SimdFloatMultAcc              0      0.00%     78.06% # Class of executed instruction
system.cpu1.op_class::SimdFloatSqrt                 0      0.00%     78.06% # Class of executed instruction
system.cpu1.op_class::MemRead                 1471455     14.26%     92.32% # Class of executed instruction
system.cpu1.op_class::MemWrite                 792655      7.68%    100.00% # Class of executed instruction
system.cpu1.op_class::IprAccess                     0      0.00%    100.00% # Class of executed instruction
system.cpu1.op_class::InstPrefetch                  0      0.00%    100.00% # Class of executed instruction
system.cpu1.op_class::total                  10320873                       # Class of executed instruction
system.cpu2.apic_clk_domain.clock                8000                       # Clock period in ticks
system.cpu2.numCycles                      4683441710                       # number of cpu cycles simulated
system.cpu2.numWorkItemsStarted                     0                       # number of work items this cpu started
system.cpu2.numWorkItemsCompleted                   0                       # number of work items this cpu completed
system.cpu2.kern.inst.arm                           0                       # number of arm instructions executed
system.cpu2.kern.inst.quiesce                       0                       # number of quiesce instructions executed
system.cpu2.committedInsts                    1909344                       # Number of instructions committed
system.cpu2.committedOps                      4085616                       # Number of ops (including micro ops) committed
system.cpu2.num_int_alu_accesses              3999947                       # Number of integer alu accesses
system.cpu2.num_fp_alu_accesses                    39                       # Number of float alu accesses
system.cpu2.num_func_calls                     107880                       # number of times a function call or return occured
system.cpu2.num_conditional_control_insts       317456                       # number of instructions that are conditional controls
system.cpu2.num_int_insts                     3999947                       # number of integer instructions
system.cpu2.num_fp_insts                           39                       # number of float instructions
system.cpu2.num_int_register_reads            8000436                       # number of times the integer registers were read
system.cpu2.num_int_register_writes           3305528                       # number of times the integer registers were written
system.cpu2.num_fp_register_reads                  63                       # number of times the floating registers were read
system.cpu2.num_fp_register_writes                 31                       # number of times the floating registers were written
system.cpu2.num_cc_register_reads             2455922                       # number of times the CC registers were read
system.cpu2.num_cc_register_writes            1251750                       # number of times the CC registers were written
system.cpu2.num_mem_refs                       926227                       # number of memory refs
system.cpu2.num_load_insts                     576483                       # Number of load instructions
system.cpu2.num_store_insts                    349744                       # Number of store instructions
system.cpu2.num_idle_cycles              4675440060.772173                       # Number of idle cycles
system.cpu2.num_busy_cycles              8001649.227827                       # Number of busy cycles
system.cpu2.not_idle_fraction                0.001708                       # Percentage of non-idle cycles
system.cpu2.idle_fraction                    0.998292                       # Percentage of idle cycles
system.cpu2.Branches                           460255                       # Number of branches fetched
system.cpu2.op_class::No_OpClass                71322      1.75%      1.75% # Class of executed instruction
system.cpu2.op_class::IntAlu                  3055450     74.79%     76.53% # Class of executed instruction
system.cpu2.op_class::IntMult                    7410      0.18%     76.71% # Class of executed instruction
system.cpu2.op_class::IntDiv                    25199      0.62%     77.33% # Class of executed instruction
system.cpu2.op_class::FloatAdd                     30      0.00%     77.33% # Class of executed instruction
system.cpu2.op_class::FloatCmp                      0      0.00%     77.33% # Class of executed instruction
system.cpu2.op_class::FloatCvt                      0      0.00%     77.33% # Class of executed instruction
system.cpu2.op_class::FloatMult                     0      0.00%     77.33% # Class of executed instruction
system.cpu2.op_class::FloatDiv                      0      0.00%     77.33% # Class of executed instruction
system.cpu2.op_class::FloatSqrt                     0      0.00%     77.33% # Class of executed instruction
system.cpu2.op_class::SimdAdd                       0      0.00%     77.33% # Class of executed instruction
system.cpu2.op_class::SimdAddAcc                    0      0.00%     77.33% # Class of executed instruction
system.cpu2.op_class::SimdAlu                       0      0.00%     77.33% # Class of executed instruction
system.cpu2.op_class::SimdCmp                       0      0.00%     77.33% # Class of executed instruction
system.cpu2.op_class::SimdCvt                       0      0.00%     77.33% # Class of executed instruction
system.cpu2.op_class::SimdMisc                      0      0.00%     77.33% # Class of executed instruction
system.cpu2.op_class::SimdMult                      0      0.00%     77.33% # Class of executed instruction
system.cpu2.op_class::SimdMultAcc                   0      0.00%     77.33% # Class of executed instruction
system.cpu2.op_class::SimdShift                     0      0.00%     77.33% # Class of executed instruction
system.cpu2.op_class::SimdShiftAcc                  0      0.00%     77.33% # Class of executed instruction
system.cpu2.op_class::SimdSqrt                      0      0.00%     77.33% # Class of executed instruction
system.cpu2.op_class::SimdFloatAdd                  0      0.00%     77.33% # Class of executed instruction
system.cpu2.op_class::SimdFloatAlu                  0      0.00%     77.33% # Class of executed instruction
system.cpu2.op_class::SimdFloatCmp                  0      0.00%     77.33% # Class of executed instruction
system.cpu2.op_class::SimdFloatCvt                  0      0.00%     77.33% # Class of executed instruction
system.cpu2.op_class::SimdFloatDiv                  0      0.00%     77.33% # Class of executed instruction
system.cpu2.op_class::SimdFloatMisc                 0      0.00%     77.33% # Class of executed instruction
system.cpu2.op_class::SimdFloatMult                 0      0.00%     77.33% # Class of executed instruction
system.cpu2.op_class::SimdFloatMultAcc              0      0.00%     77.33% # Class of executed instruction
system.cpu2.op_class::SimdFloatSqrt                 0      0.00%     77.33% # Class of executed instruction
system.cpu2.op_class::MemRead                  576483     14.11%     91.44% # Class of executed instruction
system.cpu2.op_class::MemWrite                 349744      8.56%    100.00% # Class of executed instruction
system.cpu2.op_class::IprAccess                     0      0.00%    100.00% # Class of executed instruction
system.cpu2.op_class::InstPrefetch                  0      0.00%    100.00% # Class of executed instruction
system.cpu2.op_class::total                   4085638                       # Class of executed instruction
system.cpu3.apic_clk_domain.clock                8000                       # Clock period in ticks
system.cpu3.numCycles                      4683094268                       # number of cpu cycles simulated
system.cpu3.numWorkItemsStarted                     0                       # number of work items this cpu started
system.cpu3.numWorkItemsCompleted                   0                       # number of work items this cpu completed
system.cpu3.kern.inst.arm                           0                       # number of arm instructions executed
system.cpu3.kern.inst.quiesce                       0                       # number of quiesce instructions executed
system.cpu3.committedInsts                    3625952                       # Number of instructions committed
system.cpu3.committedOps                      7452011                       # Number of ops (including micro ops) committed
system.cpu3.num_int_alu_accesses              7240655                       # Number of integer alu accesses
system.cpu3.num_fp_alu_accesses                   372                       # Number of float alu accesses
system.cpu3.num_func_calls                     163670                       # number of times a function call or return occured
system.cpu3.num_conditional_control_insts       593694                       # number of instructions that are conditional controls
system.cpu3.num_int_insts                     7240655                       # number of integer instructions
system.cpu3.num_fp_insts                          372                       # number of float instructions
system.cpu3.num_int_register_reads           14102139                       # number of times the integer registers were read
system.cpu3.num_int_register_writes           5973628                       # number of times the integer registers were written
system.cpu3.num_fp_register_reads                 596                       # number of times the floating registers were read
system.cpu3.num_fp_register_writes                261                       # number of times the floating registers were written
system.cpu3.num_cc_register_reads             4530936                       # number of times the CC registers were read
system.cpu3.num_cc_register_writes            2773703                       # number of times the CC registers were written
system.cpu3.num_mem_refs                      1514638                       # number of memory refs
system.cpu3.num_load_insts                     941264                       # Number of load instructions
system.cpu3.num_store_insts                    573374                       # Number of store instructions
system.cpu3.num_idle_cycles              4663282365.499192                       # Number of idle cycles
system.cpu3.num_busy_cycles              19811902.500807                       # Number of busy cycles
system.cpu3.not_idle_fraction                0.004231                       # Percentage of non-idle cycles
system.cpu3.idle_fraction                    0.995769                       # Percentage of idle cycles
system.cpu3.Branches                           816740                       # Number of branches fetched
system.cpu3.op_class::No_OpClass                77376      1.04%      1.04% # Class of executed instruction
system.cpu3.op_class::IntAlu                  5825361     78.17%     79.21% # Class of executed instruction
system.cpu3.op_class::IntMult                    8230      0.11%     79.32% # Class of executed instruction
system.cpu3.op_class::IntDiv                    26246      0.35%     79.67% # Class of executed instruction
system.cpu3.op_class::FloatAdd                    244      0.00%     79.68% # Class of executed instruction
system.cpu3.op_class::FloatCmp                      0      0.00%     79.68% # Class of executed instruction
system.cpu3.op_class::FloatCvt                      0      0.00%     79.68% # Class of executed instruction
system.cpu3.op_class::FloatMult                     0      0.00%     79.68% # Class of executed instruction
system.cpu3.op_class::FloatDiv                      0      0.00%     79.68% # Class of executed instruction
system.cpu3.op_class::FloatSqrt                     0      0.00%     79.68% # Class of executed instruction
system.cpu3.op_class::SimdAdd                       0      0.00%     79.68% # Class of executed instruction
system.cpu3.op_class::SimdAddAcc                    0      0.00%     79.68% # Class of executed instruction
system.cpu3.op_class::SimdAlu                       0      0.00%     79.68% # Class of executed instruction
system.cpu3.op_class::SimdCmp                       0      0.00%     79.68% # Class of executed instruction
system.cpu3.op_class::SimdCvt                       0      0.00%     79.68% # Class of executed instruction
system.cpu3.op_class::SimdMisc                      0      0.00%     79.68% # Class of executed instruction
system.cpu3.op_class::SimdMult                      0      0.00%     79.68% # Class of executed instruction
system.cpu3.op_class::SimdMultAcc                   0      0.00%     79.68% # Class of executed instruction
system.cpu3.op_class::SimdShift                     0      0.00%     79.68% # Class of executed instruction
system.cpu3.op_class::SimdShiftAcc                  0      0.00%     79.68% # Class of executed instruction
system.cpu3.op_class::SimdSqrt                      0      0.00%     79.68% # Class of executed instruction
system.cpu3.op_class::SimdFloatAdd                  0      0.00%     79.68% # Class of executed instruction
system.cpu3.op_class::SimdFloatAlu                  0      0.00%     79.68% # Class of executed instruction
system.cpu3.op_class::SimdFloatCmp                  0      0.00%     79.68% # Class of executed instruction
system.cpu3.op_class::SimdFloatCvt                  0      0.00%     79.68% # Class of executed instruction
system.cpu3.op_class::SimdFloatDiv                  0      0.00%     79.68% # Class of executed instruction
system.cpu3.op_class::SimdFloatMisc                 0      0.00%     79.68% # Class of executed instruction
system.cpu3.op_class::SimdFloatMult                 0      0.00%     79.68% # Class of executed instruction
system.cpu3.op_class::SimdFloatMultAcc              0      0.00%     79.68% # Class of executed instruction
system.cpu3.op_class::SimdFloatSqrt                 0      0.00%     79.68% # Class of executed instruction
system.cpu3.op_class::MemRead                  941264     12.63%     92.31% # Class of executed instruction
system.cpu3.op_class::MemWrite                 573374      7.69%    100.00% # Class of executed instruction
system.cpu3.op_class::IprAccess                     0      0.00%    100.00% # Class of executed instruction
system.cpu3.op_class::InstPrefetch                  0      0.00%    100.00% # Class of executed instruction
system.cpu3.op_class::total                   7452095                       # Class of executed instruction
system.iobus.trans_dist::ReadReq                  401                       # Transaction distribution
system.iobus.trans_dist::ReadResp                 401                       # Transaction distribution
system.iobus.trans_dist::WriteReq                3045                       # Transaction distribution
system.iobus.trans_dist::WriteResp               3045                       # Transaction distribution
system.iobus.trans_dist::MessageReq                54                       # Transaction distribution
system.iobus.trans_dist::MessageResp               54                       # Transaction distribution
system.iobus.pkt_count_system.pc.south_bridge.io_apic.int_master::system.ruby.l1_cntrl0.sequencer.pio-slave-port           22                       # Packet count per connected master and slave (bytes)
system.iobus.pkt_count_system.pc.south_bridge.io_apic.int_master::system.ruby.l1_cntrl1.sequencer.pio-slave-port           20                       # Packet count per connected master and slave (bytes)
system.iobus.pkt_count_system.pc.south_bridge.io_apic.int_master::system.ruby.l1_cntrl2.sequencer.pio-slave-port           22                       # Packet count per connected master and slave (bytes)
system.iobus.pkt_count_system.pc.south_bridge.io_apic.int_master::system.ruby.l1_cntrl3.sequencer.pio-slave-port           22                       # Packet count per connected master and slave (bytes)
system.iobus.pkt_count_system.pc.south_bridge.io_apic.int_master::total           86                       # Packet count per connected master and slave (bytes)
system.iobus.pkt_count_system.ruby.l1_cntrl0.sequencer.mem-master-port::system.pc.south_bridge.ide.pio          392                       # Packet count per connected master and slave (bytes)
system.iobus.pkt_count_system.ruby.l1_cntrl0.sequencer.mem-master-port::system.pc.south_bridge.io_apic.pio            8                       # Packet count per connected master and slave (bytes)
system.iobus.pkt_count_system.ruby.l1_cntrl0.sequencer.mem-master-port::system.ruby.l1_cntrl0.sequencer.pio-slave-port         1218                       # Packet count per connected master and slave (bytes)
system.iobus.pkt_count_system.ruby.l1_cntrl0.sequencer.mem-master-port::system.ruby.l1_cntrl1.sequencer.pio-slave-port            2                       # Packet count per connected master and slave (bytes)
system.iobus.pkt_count_system.ruby.l1_cntrl0.sequencer.mem-master-port::system.ruby.l1_cntrl3.sequencer.pio-slave-port            4                       # Packet count per connected master and slave (bytes)
system.iobus.pkt_count_system.ruby.l1_cntrl0.sequencer.mem-master-port::total         1624                       # Packet count per connected master and slave (bytes)
system.iobus.pkt_count_system.ruby.l1_cntrl1.sequencer.mem-master-port::system.pc.south_bridge.ide.pio          596                       # Packet count per connected master and slave (bytes)
system.iobus.pkt_count_system.ruby.l1_cntrl1.sequencer.mem-master-port::system.pc.com_1.pio            2                       # Packet count per connected master and slave (bytes)
system.iobus.pkt_count_system.ruby.l1_cntrl1.sequencer.mem-master-port::system.ruby.l1_cntrl0.sequencer.pio-slave-port            2                       # Packet count per connected master and slave (bytes)
system.iobus.pkt_count_system.ruby.l1_cntrl1.sequencer.mem-master-port::system.ruby.l1_cntrl1.sequencer.pio-slave-port         1210                       # Packet count per connected master and slave (bytes)
system.iobus.pkt_count_system.ruby.l1_cntrl1.sequencer.mem-master-port::system.ruby.l1_cntrl2.sequencer.pio-slave-port            2                       # Packet count per connected master and slave (bytes)
system.iobus.pkt_count_system.ruby.l1_cntrl1.sequencer.mem-master-port::system.ruby.l1_cntrl3.sequencer.pio-slave-port            2                       # Packet count per connected master and slave (bytes)
system.iobus.pkt_count_system.ruby.l1_cntrl1.sequencer.mem-master-port::total         1814                       # Packet count per connected master and slave (bytes)
system.iobus.pkt_count_system.ruby.l1_cntrl2.sequencer.mem-master-port::system.pc.south_bridge.ide.pio          426                       # Packet count per connected master and slave (bytes)
system.iobus.pkt_count_system.ruby.l1_cntrl2.sequencer.mem-master-port::system.pc.south_bridge.io_apic.pio            6                       # Packet count per connected master and slave (bytes)
system.iobus.pkt_count_system.ruby.l1_cntrl2.sequencer.mem-master-port::system.pc.com_1.pio          174                       # Packet count per connected master and slave (bytes)
system.iobus.pkt_count_system.ruby.l1_cntrl2.sequencer.mem-master-port::system.ruby.l1_cntrl2.sequencer.pio-slave-port         1202                       # Packet count per connected master and slave (bytes)
system.iobus.pkt_count_system.ruby.l1_cntrl2.sequencer.mem-master-port::system.ruby.l1_cntrl3.sequencer.pio-slave-port            2                       # Packet count per connected master and slave (bytes)
system.iobus.pkt_count_system.ruby.l1_cntrl2.sequencer.mem-master-port::total         1810                       # Packet count per connected master and slave (bytes)
system.iobus.pkt_count_system.ruby.l1_cntrl3.sequencer.mem-master-port::system.pc.south_bridge.ide.pio          426                       # Packet count per connected master and slave (bytes)
system.iobus.pkt_count_system.ruby.l1_cntrl3.sequencer.mem-master-port::system.pc.south_bridge.io_apic.pio            8                       # Packet count per connected master and slave (bytes)
system.iobus.pkt_count_system.ruby.l1_cntrl3.sequencer.mem-master-port::system.ruby.l1_cntrl0.sequencer.pio-slave-port            6                       # Packet count per connected master and slave (bytes)
system.iobus.pkt_count_system.ruby.l1_cntrl3.sequencer.mem-master-port::system.ruby.l1_cntrl2.sequencer.pio-slave-port            2                       # Packet count per connected master and slave (bytes)
system.iobus.pkt_count_system.ruby.l1_cntrl3.sequencer.mem-master-port::system.ruby.l1_cntrl3.sequencer.pio-slave-port         1224                       # Packet count per connected master and slave (bytes)
system.iobus.pkt_count_system.ruby.l1_cntrl3.sequencer.mem-master-port::total         1666                       # Packet count per connected master and slave (bytes)
system.iobus.pkt_count::total                    7000                       # Packet count per connected master and slave (bytes)
system.iobus.pkt_size_system.pc.south_bridge.io_apic.int_master::system.ruby.l1_cntrl0.sequencer.pio-slave-port           44                       # Cumulative packet size per connected master and slave (bytes)
system.iobus.pkt_size_system.pc.south_bridge.io_apic.int_master::system.ruby.l1_cntrl1.sequencer.pio-slave-port           40                       # Cumulative packet size per connected master and slave (bytes)
system.iobus.pkt_size_system.pc.south_bridge.io_apic.int_master::system.ruby.l1_cntrl2.sequencer.pio-slave-port           44                       # Cumulative packet size per connected master and slave (bytes)
system.iobus.pkt_size_system.pc.south_bridge.io_apic.int_master::system.ruby.l1_cntrl3.sequencer.pio-slave-port           44                       # Cumulative packet size per connected master and slave (bytes)
system.iobus.pkt_size_system.pc.south_bridge.io_apic.int_master::total          172                       # Cumulative packet size per connected master and slave (bytes)
system.iobus.pkt_size_system.ruby.l1_cntrl0.sequencer.mem-master-port::system.pc.south_bridge.ide.pio          220                       # Cumulative packet size per connected master and slave (bytes)
system.iobus.pkt_size_system.ruby.l1_cntrl0.sequencer.mem-master-port::system.pc.south_bridge.io_apic.pio           16                       # Cumulative packet size per connected master and slave (bytes)
system.iobus.pkt_size_system.ruby.l1_cntrl0.sequencer.mem-master-port::system.ruby.l1_cntrl0.sequencer.pio-slave-port         2436                       # Cumulative packet size per connected master and slave (bytes)
system.iobus.pkt_size_system.ruby.l1_cntrl0.sequencer.mem-master-port::system.ruby.l1_cntrl1.sequencer.pio-slave-port            4                       # Cumulative packet size per connected master and slave (bytes)
system.iobus.pkt_size_system.ruby.l1_cntrl0.sequencer.mem-master-port::system.ruby.l1_cntrl3.sequencer.pio-slave-port            8                       # Cumulative packet size per connected master and slave (bytes)
system.iobus.pkt_size_system.ruby.l1_cntrl0.sequencer.mem-master-port::total         2684                       # Cumulative packet size per connected master and slave (bytes)
system.iobus.pkt_size_system.ruby.l1_cntrl1.sequencer.mem-master-port::system.pc.south_bridge.ide.pio          340                       # Cumulative packet size per connected master and slave (bytes)
system.iobus.pkt_size_system.ruby.l1_cntrl1.sequencer.mem-master-port::system.pc.com_1.pio            1                       # Cumulative packet size per connected master and slave (bytes)
system.iobus.pkt_size_system.ruby.l1_cntrl1.sequencer.mem-master-port::system.ruby.l1_cntrl0.sequencer.pio-slave-port            4                       # Cumulative packet size per connected master and slave (bytes)
system.iobus.pkt_size_system.ruby.l1_cntrl1.sequencer.mem-master-port::system.ruby.l1_cntrl1.sequencer.pio-slave-port         2420                       # Cumulative packet size per connected master and slave (bytes)
system.iobus.pkt_size_system.ruby.l1_cntrl1.sequencer.mem-master-port::system.ruby.l1_cntrl2.sequencer.pio-slave-port            4                       # Cumulative packet size per connected master and slave (bytes)
system.iobus.pkt_size_system.ruby.l1_cntrl1.sequencer.mem-master-port::system.ruby.l1_cntrl3.sequencer.pio-slave-port            4                       # Cumulative packet size per connected master and slave (bytes)
system.iobus.pkt_size_system.ruby.l1_cntrl1.sequencer.mem-master-port::total         2773                       # Cumulative packet size per connected master and slave (bytes)
system.iobus.pkt_size_system.ruby.l1_cntrl2.sequencer.mem-master-port::system.pc.south_bridge.ide.pio          240                       # Cumulative packet size per connected master and slave (bytes)
system.iobus.pkt_size_system.ruby.l1_cntrl2.sequencer.mem-master-port::system.pc.south_bridge.io_apic.pio           12                       # Cumulative packet size per connected master and slave (bytes)
system.iobus.pkt_size_system.ruby.l1_cntrl2.sequencer.mem-master-port::system.pc.com_1.pio           87                       # Cumulative packet size per connected master and slave (bytes)
system.iobus.pkt_size_system.ruby.l1_cntrl2.sequencer.mem-master-port::system.ruby.l1_cntrl2.sequencer.pio-slave-port         2404                       # Cumulative packet size per connected master and slave (bytes)
system.iobus.pkt_size_system.ruby.l1_cntrl2.sequencer.mem-master-port::system.ruby.l1_cntrl3.sequencer.pio-slave-port            4                       # Cumulative packet size per connected master and slave (bytes)
system.iobus.pkt_size_system.ruby.l1_cntrl2.sequencer.mem-master-port::total         2747                       # Cumulative packet size per connected master and slave (bytes)
system.iobus.pkt_size_system.ruby.l1_cntrl3.sequencer.mem-master-port::system.pc.south_bridge.ide.pio          240                       # Cumulative packet size per connected master and slave (bytes)
system.iobus.pkt_size_system.ruby.l1_cntrl3.sequencer.mem-master-port::system.pc.south_bridge.io_apic.pio           16                       # Cumulative packet size per connected master and slave (bytes)
system.iobus.pkt_size_system.ruby.l1_cntrl3.sequencer.mem-master-port::system.ruby.l1_cntrl0.sequencer.pio-slave-port           12                       # Cumulative packet size per connected master and slave (bytes)
system.iobus.pkt_size_system.ruby.l1_cntrl3.sequencer.mem-master-port::system.ruby.l1_cntrl2.sequencer.pio-slave-port            4                       # Cumulative packet size per connected master and slave (bytes)
system.iobus.pkt_size_system.ruby.l1_cntrl3.sequencer.mem-master-port::system.ruby.l1_cntrl3.sequencer.pio-slave-port         2448                       # Cumulative packet size per connected master and slave (bytes)
system.iobus.pkt_size_system.ruby.l1_cntrl3.sequencer.mem-master-port::total         2720                       # Cumulative packet size per connected master and slave (bytes)
system.iobus.pkt_size::total                    11096                       # Cumulative packet size per connected master and slave (bytes)
system.iobus.reqLayer2.occupancy              1592500                       # Layer occupancy (ticks)
system.iobus.reqLayer2.utilization                0.0                       # Layer utilization (%)
system.iobus.reqLayer8.occupancy                20997                       # Layer occupancy (ticks)
system.iobus.reqLayer8.utilization                0.0                       # Layer utilization (%)
system.iobus.reqLayer12.occupancy              112500                       # Layer occupancy (ticks)
system.iobus.reqLayer12.utilization               0.0                       # Layer utilization (%)
system.iobus.reqLayer17.occupancy             1670461                       # Layer occupancy (ticks)
system.iobus.reqLayer17.utilization               0.0                       # Layer utilization (%)
system.iobus.reqLayer18.occupancy             1526488                       # Layer occupancy (ticks)
system.iobus.reqLayer18.utilization               0.0                       # Layer utilization (%)
system.iobus.reqLayer19.occupancy             1529990                       # Layer occupancy (ticks)
system.iobus.reqLayer19.utilization               0.0                       # Layer utilization (%)
system.iobus.reqLayer20.occupancy             1553489                       # Layer occupancy (ticks)
system.iobus.reqLayer20.utilization               0.0                       # Layer utilization (%)
system.iobus.respLayer0.occupancy               75960                       # Layer occupancy (ticks)
system.iobus.respLayer0.utilization               0.0                       # Layer utilization (%)
system.iobus.respLayer2.occupancy             1193500                       # Layer occupancy (ticks)
system.iobus.respLayer2.utilization               0.0                       # Layer utilization (%)
system.iobus.respLayer4.occupancy             1308500                       # Layer occupancy (ticks)
system.iobus.respLayer4.utilization               0.0                       # Layer utilization (%)
system.iobus.respLayer6.occupancy             1348500                       # Layer occupancy (ticks)
system.iobus.respLayer6.utilization               0.0                       # Layer utilization (%)
system.iobus.respLayer8.occupancy             1221000                       # Layer occupancy (ticks)
system.iobus.respLayer8.utilization               0.0                       # Layer utilization (%)
system.pc.south_bridge.ide.disks.dma_read_full_pages          356                       # Number of full page size DMA reads (not PRD).
system.pc.south_bridge.ide.disks.dma_read_bytes      1458176                       # Number of bytes transfered via DMA reads (not PRD).
system.pc.south_bridge.ide.disks.dma_read_txs          356                       # Number of DMA read transactions (not PRD).
system.pc.south_bridge.ide.disks.dma_write_full_pages            0                       # Number of full page size DMA writes.
system.pc.south_bridge.ide.disks.dma_write_bytes            0                       # Number of bytes transfered via DMA writes.
system.pc.south_bridge.ide.disks.dma_write_txs            0                       # Number of DMA write transactions.
system.ruby.clk_domain.clock                      500                       # Clock period in ticks
system.ruby.outstanding_req_hist_seqr::bucket_size            1                      
system.ruby.outstanding_req_hist_seqr::max_bucket            9                      
system.ruby.outstanding_req_hist_seqr::samples   2273729730                      
system.ruby.outstanding_req_hist_seqr::mean     1.001963                      
system.ruby.outstanding_req_hist_seqr::gmean     1.001361                      
system.ruby.outstanding_req_hist_seqr::stdev     0.044258                      
system.ruby.outstanding_req_hist_seqr    |           0      0.00%      0.00% |  2269267164     99.80%     99.80% |     4462566      0.20%    100.00% |           0      0.00%    100.00% |           0      0.00%    100.00% |           0      0.00%    100.00% |           0      0.00%    100.00% |           0      0.00%    100.00% |           0      0.00%    100.00% |           0      0.00%    100.00%
system.ruby.outstanding_req_hist_seqr::total   2273729730                      
system.ruby.latency_hist_seqr::bucket_size          256                      
system.ruby.latency_hist_seqr::max_bucket         2559                      
system.ruby.latency_hist_seqr::samples     2273729730                      
system.ruby.latency_hist_seqr::mean          1.071912                      
system.ruby.latency_hist_seqr::gmean         1.004029                      
system.ruby.latency_hist_seqr::stdev         3.144114                      
system.ruby.latency_hist_seqr            |  2273702063    100.00%    100.00% |       16074      0.00%    100.00% |       11367      0.00%    100.00% |         207      0.00%    100.00% |          18      0.00%    100.00% |           1      0.00%    100.00% |           0      0.00%    100.00% |           0      0.00%    100.00% |           0      0.00%    100.00% |           0      0.00%    100.00%
system.ruby.latency_hist_seqr::total       2273729730                      
system.ruby.hit_latency_hist_seqr::bucket_size            1                      
system.ruby.hit_latency_hist_seqr::max_bucket            9                      
system.ruby.hit_latency_hist_seqr::samples   2271285367                      
system.ruby.hit_latency_hist_seqr::mean             1                      
system.ruby.hit_latency_hist_seqr::gmean            1                      
system.ruby.hit_latency_hist_seqr        |           0      0.00%      0.00% |  2271285367    100.00%    100.00% |           0      0.00%    100.00% |           0      0.00%    100.00% |           0      0.00%    100.00% |           0      0.00%    100.00% |           0      0.00%    100.00% |           0      0.00%    100.00% |           0      0.00%    100.00% |           0      0.00%    100.00%
system.ruby.hit_latency_hist_seqr::total   2271285367                      
system.ruby.miss_latency_hist_seqr::bucket_size          256                      
system.ruby.miss_latency_hist_seqr::max_bucket         2559                      
system.ruby.miss_latency_hist_seqr::samples      2444363                      
system.ruby.miss_latency_hist_seqr::mean    67.892083                      
system.ruby.miss_latency_hist_seqr::gmean    42.104736                      
system.ruby.miss_latency_hist_seqr::stdev    68.743296                      
[...]
system.ruby.L1Cache_Controller.O.Load::total        13477                      
system.ruby.L1Cache_Controller.O.Store   |          13     12.62%     12.62% |          38     36.89%     49.51% |          33     32.04%     81.55% |          19     18.45%    100.00%
system.ruby.L1Cache_Controller.O.Store::total          103                      
system.ruby.L1Cache_Controller.O.L1_Replacement |         355     31.03%     31.03% |         191     16.70%     47.73% |         284     24.83%     72.55% |         314     27.45%    100.00%
system.ruby.L1Cache_Controller.O.L1_Replacement::total         1144                      
system.ruby.L1Cache_Controller.O.Fwd_GETX |         278      2.39%      2.39% |        3186     27.43%     29.82% |        2817     24.25%     54.07% |        5336     45.93%    100.00%
system.ruby.L1Cache_Controller.O.Fwd_GETX::total        11617                      
system.ruby.L1Cache_Controller.O.Fwd_GETS |         274      2.55%      2.55% |        2508     23.32%     25.86% |        1678     15.60%     41.46% |        6297     58.54%    100.00%
system.ruby.L1Cache_Controller.O.Fwd_GETS::total        10757                      
system.ruby.L1Cache_Controller.M.Load    |    73669391     98.03%     98.03% |     1362006      1.81%     99.84% |       34639      0.05%     99.89% |       84532      0.11%    100.00%
system.ruby.L1Cache_Controller.M.Load::total     75150568                      
system.ruby.L1Cache_Controller.M.Store   |       47433     40.86%     40.86% |       61944     53.36%     94.23% |        1711      1.47%     95.70% |        4989      4.30%    100.00%
system.ruby.L1Cache_Controller.M.Store::total       116077                      
system.ruby.L1Cache_Controller.M.L1_Replacement |      325052     87.88%     87.88% |       34428      9.31%     97.19% |        2927      0.79%     97.98% |        7460      2.02%    100.00%
system.ruby.L1Cache_Controller.M.L1_Replacement::total       369867                      
system.ruby.L1Cache_Controller.M.Fwd_GETX |         231     17.11%     17.11% |         392     29.04%     46.15% |         413     30.59%     76.74% |         314     23.26%    100.00%
system.ruby.L1Cache_Controller.M.Fwd_GETX::total         1350                      
system.ruby.L1Cache_Controller.M.Fwd_GETS |         598      4.69%      4.69% |        3415     26.76%     31.44% |        3159     24.75%     56.20% |        5590     43.80%    100.00%
system.ruby.L1Cache_Controller.M.Fwd_GETS::total        12762                      
system.ruby.L1Cache_Controller.M_W.Load  |      554848     80.32%     80.32% |      117342     16.99%     97.30% |        5193      0.75%     98.05% |       13455      1.95%    100.00%
system.ruby.L1Cache_Controller.M_W.Load::total       690838                      
system.ruby.L1Cache_Controller.M_W.Store |      248519     93.33%     93.33% |       13634      5.12%     98.44% |         699      0.26%     98.71% |        3442      1.29%    100.00%
system.ruby.L1Cache_Controller.M_W.Store::total       266294                      
system.ruby.L1Cache_Controller.M_W.L1_Replacement |          27     47.37%     47.37% |          15     26.32%     73.68% |          10     17.54%     91.23% |           5      8.77%    100.00%
system.ruby.L1Cache_Controller.M_W.L1_Replacement::total           57                      
system.ruby.L1Cache_Controller.M_W.Fwd_GETX |           3     15.79%     15.79% |           2     10.53%     26.32% |          14     73.68%    100.00% |           0      0.00%    100.00%
system.ruby.L1Cache_Controller.M_W.Fwd_GETX::total           19                      
system.ruby.L1Cache_Controller.M_W.Fwd_GETS |          25     13.97%     13.97% |          54     30.17%     44.13% |          88     49.16%     93.30% |          12      6.70%    100.00%
system.ruby.L1Cache_Controller.M_W.Fwd_GETS::total          179                      
system.ruby.L1Cache_Controller.M_W.Use_Timeout |      373303     74.64%     74.64% |      100186     20.03%     94.67% |        8292      1.66%     96.33% |       18341      3.67%    100.00%
system.ruby.L1Cache_Controller.M_W.Use_Timeout::total       500122                      
system.ruby.L1Cache_Controller.MM.Load   |    62720125     78.49%     78.49% |    15993862     20.02%     98.51% |      458980      0.57%     99.08% |      735165      0.92%    100.00%
system.ruby.L1Cache_Controller.MM.Load::total     79908132                      
system.ruby.L1Cache_Controller.MM.Store  |    38440458     73.84%     73.84% |    12302707     23.63%     97.47% |      482208      0.93%     98.40% |      832291      1.60%    100.00%
system.ruby.L1Cache_Controller.MM.Store::total     52057664                      
system.ruby.L1Cache_Controller.MM.L1_Replacement |      926041     78.71%     78.71% |      195110     16.58%     95.29% |        8606      0.73%     96.03% |       46750      3.97%    100.00%
system.ruby.L1Cache_Controller.MM.L1_Replacement::total      1176507                      
system.ruby.L1Cache_Controller.MM.Fwd_GETX |         600     25.85%     25.85% |         541     23.31%     49.16% |         647     27.88%     77.04% |         533     22.96%    100.00%
system.ruby.L1Cache_Controller.MM.Fwd_GETX::total         2321                      
system.ruby.L1Cache_Controller.MM.Fwd_GETS |        5068     39.11%     39.11% |        2981     23.01%     62.12% |        2278     17.58%     79.70% |        2631     20.30%    100.00%
system.ruby.L1Cache_Controller.MM.Fwd_GETS::total        12958                      
system.ruby.L1Cache_Controller.MM.Fwd_DMA |          32     18.93%     18.93% |         102     60.36%     79.29% |          15      8.88%     88.17% |          20     11.83%    100.00%
system.ruby.L1Cache_Controller.MM.Fwd_DMA::total          169                      
system.ruby.L1Cache_Controller.MM_W.Load |       32091     50.92%     50.92% |       14870     23.59%     74.51% |         796      1.26%     75.77% |       15269     24.23%    100.00%
system.ruby.L1Cache_Controller.MM_W.Load::total        63026                      
system.ruby.L1Cache_Controller.MM_W.Store |      740093     62.94%     62.94% |      240223     20.43%     83.37% |       34596      2.94%     86.32% |      160890     13.68%    100.00%
system.ruby.L1Cache_Controller.MM_W.Store::total      1175802                      
system.ruby.L1Cache_Controller.MM_W.L1_Replacement |           0      0.00%      0.00% |           0      0.00%      0.00% |           0      0.00%      0.00% |           2    100.00%    100.00%
system.ruby.L1Cache_Controller.MM_W.L1_Replacement::total            2                      
system.ruby.L1Cache_Controller.MM_W.Fwd_GETX |           3     17.65%     17.65% |           9     52.94%     70.59% |           5     29.41%    100.00% |           0      0.00%    100.00%
system.ruby.L1Cache_Controller.MM_W.Fwd_GETX::total           17                      
system.ruby.L1Cache_Controller.MM_W.Fwd_GETS |          36     14.69%     14.69% |          86     35.10%     49.80% |          93     37.96%     87.76% |          30     12.24%    100.00%
system.ruby.L1Cache_Controller.MM_W.Fwd_GETS::total          245                      
system.ruby.L1Cache_Controller.MM_W.Use_Timeout |      884144     82.20%     82.20% |      136718     12.71%     94.91% |        9935      0.92%     95.83% |       44838      4.17%    100.00%
system.ruby.L1Cache_Controller.MM_W.Use_Timeout::total      1075635                      
system.ruby.L1Cache_Controller.IM.Ack    |        5182     40.42%     40.42% |        3063     23.89%     64.31% |        1831     14.28%     78.60% |        2744     21.40%    100.00%
system.ruby.L1Cache_Controller.IM.Ack::total        12820                      
system.ruby.L1Cache_Controller.IM.Exclusive_Data |      484534     82.63%     82.63% |       75608     12.89%     95.52% |        7500      1.28%     96.80% |       18767      3.20%    100.00%
system.ruby.L1Cache_Controller.IM.Exclusive_Data::total       586409                      
system.ruby.L1Cache_Controller.SM.Inv    |           0      0.00%      0.00% |           0      0.00%      0.00% |           1    100.00%    100.00% |           0      0.00%    100.00%
system.ruby.L1Cache_Controller.SM.Inv::total            1                      
system.ruby.L1Cache_Controller.SM.Ack    |        7265     62.43%     62.43% |        2186     18.78%     81.22% |        1362     11.70%     92.92% |         824      7.08%    100.00%
system.ruby.L1Cache_Controller.SM.Ack::total        11637                      
system.ruby.L1Cache_Controller.SM.Exclusive_Data |      151078     67.80%     67.80% |       47438     21.29%     89.09% |        1703      0.76%     89.85% |       22610     10.15%    100.00%
system.ruby.L1Cache_Controller.SM.Exclusive_Data::total       222829                      
system.ruby.L1Cache_Controller.OM.Own_GETX |          13     12.62%     12.62% |          38     36.89%     49.51% |          33     32.04%     81.55% |          19     18.45%    100.00%
system.ruby.L1Cache_Controller.OM.Own_GETX::total          103                      
system.ruby.L1Cache_Controller.OM.Ack    |         764     36.45%     36.45% |         715     34.11%     70.56% |         310     14.79%     85.35% |         307     14.65%    100.00%
system.ruby.L1Cache_Controller.OM.Ack::total         2096                      
system.ruby.L1Cache_Controller.OM.All_acks |      635625     78.54%     78.54% |      123084     15.21%     93.74% |        9236      1.14%     94.89% |       41396      5.11%    100.00%
system.ruby.L1Cache_Controller.OM.All_acks::total       809341                      
system.ruby.L1Cache_Controller.IS.Data   |      955435     71.26%     71.26% |      246117     18.36%     89.61% |       46275      3.45%     93.06% |       93000      6.94%    100.00%
system.ruby.L1Cache_Controller.IS.Data::total      1340827                      
system.ruby.L1Cache_Controller.IS.Exclusive_Data |      621822     81.13%     81.13% |      113820     14.85%     95.98% |        8991      1.17%     97.16% |       21783      2.84%    100.00%
system.ruby.L1Cache_Controller.IS.Exclusive_Data::total       766416                      
system.ruby.L1Cache_Controller.SI.Load   |         153     54.06%     54.06% |         104     36.75%     90.81% |           0      0.00%     90.81% |          26      9.19%    100.00%
system.ruby.L1Cache_Controller.SI.Load::total          283                      
system.ruby.L1Cache_Controller.SI.Ifetch |           3     42.86%     42.86% |           0      0.00%     42.86% |           0      0.00%     42.86% |           4     57.14%    100.00%
system.ruby.L1Cache_Controller.SI.Ifetch::total            7                      
system.ruby.L1Cache_Controller.SI.Writeback_Ack |      460133     69.87%     69.87% |      103506     15.72%     85.58% |       36507      5.54%     91.13% |       58436      8.87%    100.00%
system.ruby.L1Cache_Controller.SI.Writeback_Ack::total       658582                      
system.ruby.L1Cache_Controller.SI.Writeback_Ack_Data |      343773     76.74%     76.74% |       91411     20.41%     97.14% |        3080      0.69%     97.83% |        9716      2.17%    100.00%
system.ruby.L1Cache_Controller.SI.Writeback_Ack_Data::total       447980                      
system.ruby.L1Cache_Controller.OI.Writeback_Ack_Data |         355     31.03%     31.03% |         191     16.70%     47.73% |         284     24.83%     72.55% |         314     27.45%    100.00%
system.ruby.L1Cache_Controller.OI.Writeback_Ack_Data::total         1144                      
system.ruby.L1Cache_Controller.MI.Load   |          42     17.36%     17.36% |          96     39.67%     57.02% |           2      0.83%     57.85% |         102     42.15%    100.00%
system.ruby.L1Cache_Controller.MI.Load::total          242                      
system.ruby.L1Cache_Controller.MI.Writeback_Ack_Data |     1251093     80.90%     80.90% |      229538     14.84%     95.75% |       11533      0.75%     96.49% |       54210      3.51%    100.00%
system.ruby.L1Cache_Controller.MI.Writeback_Ack_Data::total      1546374                      
system.ruby.L2Cache_Controller.L1_GETS        2107468      0.00%      0.00%
system.ruby.L2Cache_Controller.L1_GETX         809349      0.00%      0.00%
system.ruby.L2Cache_Controller.L1_PUTO           1144      0.00%      0.00%
system.ruby.L2Cache_Controller.L1_PUTX        1546374      0.00%      0.00%
system.ruby.L2Cache_Controller.L1_PUTS_only       969123      0.00%      0.00%
system.ruby.L2Cache_Controller.L1_PUTS         137447      0.00%      0.00%
system.ruby.L2Cache_Controller.Fwd_DMA            376      0.00%      0.00%
system.ruby.L2Cache_Controller.All_Acks        702736      0.00%      0.00%
system.ruby.L2Cache_Controller.Data           1326235      0.00%      0.00%
system.ruby.L2Cache_Controller.L1_WBCLEANDATA       447980      0.00%      0.00%
system.ruby.L2Cache_Controller.L1_WBDIRTYDATA      1547518      0.00%      0.00%
system.ruby.L2Cache_Controller.Writeback_Ack       682673      0.00%      0.00%
system.ruby.L2Cache_Controller.Unblock        1999409      0.00%      0.00%
system.ruby.L2Cache_Controller.Exclusive_Unblock      1575757      0.00%      0.00%
system.ruby.L2Cache_Controller.DmaAck             169      0.00%      0.00%
system.ruby.L2Cache_Controller.L2_Replacement      1066176      0.00%      0.00%
system.ruby.L2Cache_Controller.NP.L1_GETS       623499      0.00%      0.00%
system.ruby.L2Cache_Controller.NP.L1_GETX       466537      0.00%      0.00%
system.ruby.L2Cache_Controller.ILS.L1_GETS         4832      0.00%      0.00%
system.ruby.L2Cache_Controller.ILS.L1_GETX       181012      0.00%      0.00%
system.ruby.L2Cache_Controller.ILS.L1_PUTS_only       442669      0.00%      0.00%
system.ruby.L2Cache_Controller.ILS.L1_PUTS         5311      0.00%      0.00%
system.ruby.L2Cache_Controller.ILX.L1_GETS        25720      0.00%      0.00%
system.ruby.L2Cache_Controller.ILX.L1_GETX         3671      0.00%      0.00%
system.ruby.L2Cache_Controller.ILX.L1_PUTX      1546374      0.00%      0.00%
system.ruby.L2Cache_Controller.ILX.Fwd_DMA          169      0.00%      0.00%
system.ruby.L2Cache_Controller.ILOX.L1_GETS         3374      0.00%      0.00%
system.ruby.L2Cache_Controller.ILOX.L1_GETX         1140      0.00%      0.00%
system.ruby.L2Cache_Controller.ILOX.L1_PUTO          730      0.00%      0.00%
system.ruby.L2Cache_Controller.ILOSX.L1_GETS         7383      0.00%      0.00%
system.ruby.L2Cache_Controller.ILOSX.L1_GETX        10580      0.00%      0.00%
system.ruby.L2Cache_Controller.ILOSX.L1_PUTO          414      0.00%      0.00%
system.ruby.L2Cache_Controller.ILOSX.L1_PUTS_only         5226      0.00%      0.00%
system.ruby.L2Cache_Controller.ILOSX.L1_PUTS         1265      0.00%      0.00%
system.ruby.L2Cache_Controller.S.L1_GETS       557162      0.00%      0.00%
system.ruby.L2Cache_Controller.S.L1_GETX        19572      0.00%      0.00%
system.ruby.L2Cache_Controller.S.L2_Replacement       378146      0.00%      0.00%
system.ruby.L2Cache_Controller.OLSX.L1_GETS         3032      0.00%      0.00%
system.ruby.L2Cache_Controller.OLSX.L1_GETX          149      0.00%      0.00%
system.ruby.L2Cache_Controller.OLSX.L1_PUTS_only          231      0.00%      0.00%
system.ruby.L2Cache_Controller.OLSX.L1_PUTS         2927      0.00%      0.00%
system.ruby.L2Cache_Controller.OLSX.L2_Replacement           48      0.00%      0.00%
system.ruby.L2Cache_Controller.SLS.L1_GETS       128783      0.00%      0.00%
system.ruby.L2Cache_Controller.SLS.L1_GETX        35615      0.00%      0.00%
system.ruby.L2Cache_Controller.SLS.L1_PUTS_only       520996      0.00%      0.00%
system.ruby.L2Cache_Controller.SLS.L1_PUTS       127937      0.00%      0.00%
system.ruby.L2Cache_Controller.SLS.L2_Replacement         5357      0.00%      0.00%
system.ruby.L2Cache_Controller.M.L1_GETS       753458      0.00%      0.00%
system.ruby.L2Cache_Controller.M.L1_GETX        91065      0.00%      0.00%
system.ruby.L2Cache_Controller.M.Fwd_DMA          207      0.00%      0.00%
system.ruby.L2Cache_Controller.M.L2_Replacement       682625      0.00%      0.00%
system.ruby.L2Cache_Controller.ILOXW.L1_WBDIRTYDATA          730      0.00%      0.00%
system.ruby.L2Cache_Controller.ILOXW.Unblock         5226      0.00%      0.00%
system.ruby.L2Cache_Controller.ILOSXW.L1_WBDIRTYDATA          414      0.00%      0.00%
system.ruby.L2Cache_Controller.ILOSXW.Unblock         1265      0.00%      0.00%
system.ruby.L2Cache_Controller.SLSW.L1_PUTS            7      0.00%      0.00%
system.ruby.L2Cache_Controller.SLSW.Unblock       127937      0.00%      0.00%
system.ruby.L2Cache_Controller.ILSW.L1_WBCLEANDATA         5311      0.00%      0.00%
system.ruby.L2Cache_Controller.IW.L1_WBCLEANDATA       442669      0.00%      0.00%
system.ruby.L2Cache_Controller.SW.L1_GETS            1      0.00%      0.00%
system.ruby.L2Cache_Controller.SW.Unblock       520996      0.00%      0.00%
system.ruby.L2Cache_Controller.OXW.Unblock          231      0.00%      0.00%
system.ruby.L2Cache_Controller.OLSXW.Unblock         2927      0.00%      0.00%
system.ruby.L2Cache_Controller.ILXW.L1_GETS            1      0.00%      0.00%
system.ruby.L2Cache_Controller.ILXW.L1_WBDIRTYDATA      1546374      0.00%      0.00%
system.ruby.L2Cache_Controller.IFLS.L1_GETS            3      0.00%      0.00%
system.ruby.L2Cache_Controller.IFLS.Unblock         4832      0.00%      0.00%
system.ruby.L2Cache_Controller.IFLOX.Unblock         3374      0.00%      0.00%
system.ruby.L2Cache_Controller.IFLOX.Exclusive_Unblock          149      0.00%      0.00%
system.ruby.L2Cache_Controller.IFLOXX.L1_GETS           54      0.00%      0.00%
system.ruby.L2Cache_Controller.IFLOXX.L1_GETX            6      0.00%      0.00%
system.ruby.L2Cache_Controller.IFLOXX.Unblock        12762      0.00%      0.00%
system.ruby.L2Cache_Controller.IFLOXX.Exclusive_Unblock        17769      0.00%      0.00%
system.ruby.L2Cache_Controller.IFLOSX.Unblock         7383      0.00%      0.00%
system.ruby.L2Cache_Controller.IFLXO.L1_GETS           48      0.00%      0.00%
system.ruby.L2Cache_Controller.IFLXO.L1_GETX            2      0.00%      0.00%
system.ruby.L2Cache_Controller.IFLXO.Exclusive_Unblock        10580      0.00%      0.00%
system.ruby.L2Cache_Controller.IGS.L1_GETS          110      0.00%      0.00%
system.ruby.L2Cache_Controller.IGS.Data        623499      0.00%      0.00%
system.ruby.L2Cache_Controller.IGS.Unblock       623499      0.00%      0.00%
system.ruby.L2Cache_Controller.IGM.Data        486109      0.00%      0.00%
system.ruby.L2Cache_Controller.IGMLS.Data       216627      0.00%      0.00%
system.ruby.L2Cache_Controller.IGMO.All_Acks       702736      0.00%      0.00%
system.ruby.L2Cache_Controller.IGMO.Exclusive_Unblock       702736      0.00%      0.00%
system.ruby.L2Cache_Controller.MM.Exclusive_Unblock        91065      0.00%      0.00%
system.ruby.L2Cache_Controller.SS.L1_GETS            5      0.00%      0.00%
system.ruby.L2Cache_Controller.SS.Unblock       557162      0.00%      0.00%
system.ruby.L2Cache_Controller.OO.L1_GETS            1      0.00%      0.00%
system.ruby.L2Cache_Controller.OO.Exclusive_Unblock       753458      0.00%      0.00%
system.ruby.L2Cache_Controller.OLSXS.Unblock         3032      0.00%      0.00%
system.ruby.L2Cache_Controller.SLSS.L1_GETS            2      0.00%      0.00%
system.ruby.L2Cache_Controller.SLSS.L1_PUTS_only            1      0.00%      0.00%
system.ruby.L2Cache_Controller.SLSS.Unblock       128783      0.00%      0.00%
system.ruby.L2Cache_Controller.MI.Writeback_Ack       682625      0.00%      0.00%
system.ruby.L2Cache_Controller.OLSI.Writeback_Ack           48      0.00%      0.00%
system.ruby.L2Cache_Controller.ILXD.DmaAck          169      0.00%      0.00%

---------- End Simulation Statistics   ----------
