
---------- Begin Simulation Statistics ----------
sim_seconds                                  2.354578                       # Number of seconds simulated
sim_ticks                                2354578188000                       # Number of ticks simulated
final_tick                               54787031476501                       # Number of ticks from beginning of simulation (restored from checkpoints and never reset)
sim_freq                                 1000000000000                       # Frequency of simulated ticks
host_inst_rate                                 150411                       # Simulator instruction rate (inst/s)
host_op_rate                                   272645                       # Simulator op (including micro ops) rate (op/s)
host_tick_rate                              269738796                       # Simulator tick rate (ticks/s)
host_mem_usage                                1845276                       # Number of bytes of host memory used
host_seconds                                  8729.10                       # Real time elapsed on the host
sim_insts                                  1312949112                       # Number of instructions simulated
sim_ops                                    2379950125                       # Number of ops (including micro ops) simulated
system.voltage_domain.voltage                       1                       # Voltage in Volts
system.clk_domain.clock                          1000                       # Clock period in ticks
system.mem_ctrls.bytes_read::ruby.dir_cntrl0     83457280                       # Number of bytes read from this memory
system.mem_ctrls.bytes_read::total           83457280                       # Number of bytes read from this memory
system.mem_ctrls.bytes_written::ruby.dir_cntrl0     47373504                       # Number of bytes written to this memory
system.mem_ctrls.bytes_written::total        47373504                       # Number of bytes written to this memory
system.mem_ctrls.num_reads::ruby.dir_cntrl0      1304020                       # Number of read requests responded to by this memory
system.mem_ctrls.num_reads::total             1304020                       # Number of read requests responded to by this memory
system.mem_ctrls.num_writes::ruby.dir_cntrl0       740211                       # Number of write requests responded to by this memory
system.mem_ctrls.num_writes::total             740211                       # Number of write requests responded to by this memory
system.mem_ctrls.bw_read::ruby.dir_cntrl0     35444684                       # Total read bandwidth from this memory (bytes/s)
system.mem_ctrls.bw_read::total              35444684                       # Total read bandwidth from this memory (bytes/s)
system.mem_ctrls.bw_write::ruby.dir_cntrl0     20119741                       # Write bandwidth from this memory (bytes/s)
system.mem_ctrls.bw_write::total             20119741                       # Write bandwidth from this memory (bytes/s)
system.mem_ctrls.bw_total::ruby.dir_cntrl0     55564425                       # Total bandwidth to/from this memory (bytes/s)
system.mem_ctrls.bw_total::total             55564425                       # Total bandwidth to/from this memory (bytes/s)
system.mem_ctrls.readReqs                     1304020                       # Number of read requests accepted
system.mem_ctrls.writeReqs                     740211                       # Number of write requests accepted
system.mem_ctrls.readBursts                   1304020                       # Number of DRAM read bursts, including those serviced by the write queue
system.mem_ctrls.writeBursts                   740211                       # Number of DRAM write bursts, including those merged in the write queue
system.mem_ctrls.bytesReadDRAM               83413760                       # Total number of bytes read from DRAM
system.mem_ctrls.bytesReadWrQ                   43520                       # Total number of bytes read from write queue
system.mem_ctrls.bytesWritten                47371456                       # Total number of bytes written to DRAM
system.mem_ctrls.bytesReadSys                83457280                       # Total read bytes from the system interface side
system.mem_ctrls.bytesWrittenSys             47373504                       # Total written bytes from the system interface side
system.mem_ctrls.servicedByWrQ                    680                       # Number of DRAM read bursts serviced by the write queue
system.mem_ctrls.mergedWrBursts                    32                       # Number of DRAM write bursts merged with an existing one
system.mem_ctrls.neitherReadNorWriteReqs            0                       # Number of requests that are neither read nor write
system.mem_ctrls.perBankRdBursts::0             87278                       # Per bank write bursts
system.mem_ctrls.perBankRdBursts::1             87989                       # Per bank write bursts
system.mem_ctrls.perBankRdBursts::2             79959                       # Per bank write bursts
system.mem_ctrls.perBankRdBursts::3             80394                       # Per bank write bursts
system.mem_ctrls.perBankRdBursts::4             81090                       # Per bank write bursts
system.mem_ctrls.perBankRdBursts::5             80336                       # Per bank write bursts
system.mem_ctrls.perBankRdBursts::6             81157                       # Per bank write bursts
system.mem_ctrls.perBankRdBursts::7             78517                       # Per bank write bursts
system.mem_ctrls.perBankRdBursts::8             81376                       # Per bank write bursts
system.mem_ctrls.perBankRdBursts::9             79096                       # Per bank write bursts
system.mem_ctrls.perBankRdBursts::10            80301                       # Per bank write bursts
system.mem_ctrls.perBankRdBursts::11            80834                       # Per bank write bursts
system.mem_ctrls.perBankRdBursts::12            78579                       # Per bank write bursts
system.mem_ctrls.perBankRdBursts::13            80388                       # Per bank write bursts
system.mem_ctrls.perBankRdBursts::14            81922                       # Per bank write bursts
system.mem_ctrls.perBankRdBursts::15            84124                       # Per bank write bursts
system.mem_ctrls.perBankWrBursts::0             48331                       # Per bank write bursts
system.mem_ctrls.perBankWrBursts::1             50417                       # Per bank write bursts
system.mem_ctrls.perBankWrBursts::2             46436                       # Per bank write bursts
system.mem_ctrls.perBankWrBursts::3             45812                       # Per bank write bursts
system.mem_ctrls.perBankWrBursts::4             45718                       # Per bank write bursts
system.mem_ctrls.perBankWrBursts::5             45622                       # Per bank write bursts
system.mem_ctrls.perBankWrBursts::6             46544                       # Per bank write bursts
system.mem_ctrls.perBankWrBursts::7             45290                       # Per bank write bursts
system.mem_ctrls.perBankWrBursts::8             46474                       # Per bank write bursts
system.mem_ctrls.perBankWrBursts::9             44788                       # Per bank write bursts
system.mem_ctrls.perBankWrBursts::10            46239                       # Per bank write bursts
system.mem_ctrls.perBankWrBursts::11            45902                       # Per bank write bursts
system.mem_ctrls.perBankWrBursts::12            45011                       # Per bank write bursts
system.mem_ctrls.perBankWrBursts::13            45279                       # Per bank write bursts
system.mem_ctrls.perBankWrBursts::14            46007                       # Per bank write bursts
system.mem_ctrls.perBankWrBursts::15            46309                       # Per bank write bursts
system.mem_ctrls.numRdRetry                         0                       # Number of times read queue was full causing retry
system.mem_ctrls.numWrRetry                         0                       # Number of times write queue was full causing retry
system.mem_ctrls.totGap                  2354578117000                       # Total gap between requests
system.mem_ctrls.readPktSize::0                     0                       # Read request sizes (log2)
system.mem_ctrls.readPktSize::1                     0                       # Read request sizes (log2)
system.mem_ctrls.readPktSize::2                     0                       # Read request sizes (log2)
system.mem_ctrls.readPktSize::3                     0                       # Read request sizes (log2)
system.mem_ctrls.readPktSize::4                     0                       # Read request sizes (log2)
system.mem_ctrls.readPktSize::5                     0                       # Read request sizes (log2)
system.mem_ctrls.readPktSize::6               1304020                       # Read request sizes (log2)
system.mem_ctrls.writePktSize::0                    0                       # Write request sizes (log2)
system.mem_ctrls.writePktSize::1                    0                       # Write request sizes (log2)
system.mem_ctrls.writePktSize::2                    0                       # Write request sizes (log2)
system.mem_ctrls.writePktSize::3                    0                       # Write request sizes (log2)
system.mem_ctrls.writePktSize::4                    0                       # Write request sizes (log2)
system.mem_ctrls.writePktSize::5                    0                       # Write request sizes (log2)
system.mem_ctrls.writePktSize::6               740211                       # Write request sizes (log2)
system.mem_ctrls.rdQLenPdf::0                 1298275                       # What read queue length does an incoming req see
system.mem_ctrls.rdQLenPdf::1                    5038                       # What read queue length does an incoming req see
system.mem_ctrls.rdQLenPdf::2                      27                       # What read queue length does an incoming req see
system.mem_ctrls.rdQLenPdf::3                       0                       # What read queue length does an incoming req see
system.mem_ctrls.rdQLenPdf::4                       0                       # What read queue length does an incoming req see
system.mem_ctrls.rdQLenPdf::5                       0                       # What read queue length does an incoming req see
system.mem_ctrls.rdQLenPdf::6                       0                       # What read queue length does an incoming req see
system.mem_ctrls.rdQLenPdf::7                       0                       # What read queue length does an incoming req see
system.mem_ctrls.rdQLenPdf::8                       0                       # What read queue length does an incoming req see
system.mem_ctrls.rdQLenPdf::9                       0                       # What read queue length does an incoming req see
system.mem_ctrls.rdQLenPdf::10                      0                       # What read queue length does an incoming req see
system.mem_ctrls.rdQLenPdf::11                      0                       # What read queue length does an incoming req see
system.mem_ctrls.rdQLenPdf::12                      0                       # What read queue length does an incoming req see
system.mem_ctrls.rdQLenPdf::13                      0                       # What read queue length does an incoming req see
system.mem_ctrls.rdQLenPdf::14                      0                       # What read queue length does an incoming req see
system.mem_ctrls.rdQLenPdf::15                      0                       # What read queue length does an incoming req see
system.mem_ctrls.rdQLenPdf::16                      0                       # What read queue length does an incoming req see
system.mem_ctrls.rdQLenPdf::17                      0                       # What read queue length does an incoming req see
system.mem_ctrls.rdQLenPdf::18                      0                       # What read queue length does an incoming req see
system.mem_ctrls.rdQLenPdf::19                      0                       # What read queue length does an incoming req see
system.mem_ctrls.rdQLenPdf::20                      0                       # What read queue length does an incoming req see
system.mem_ctrls.rdQLenPdf::21                      0                       # What read queue length does an incoming req see
system.mem_ctrls.rdQLenPdf::22                      0                       # What read queue length does an incoming req see
system.mem_ctrls.rdQLenPdf::23                      0                       # What read queue length does an incoming req see
system.mem_ctrls.rdQLenPdf::24                      0                       # What read queue length does an incoming req see
system.mem_ctrls.rdQLenPdf::25                      0                       # What read queue length does an incoming req see
system.mem_ctrls.rdQLenPdf::26                      0                       # What read queue length does an incoming req see
system.mem_ctrls.rdQLenPdf::27                      0                       # What read queue length does an incoming req see
system.mem_ctrls.rdQLenPdf::28                      0                       # What read queue length does an incoming req see
system.mem_ctrls.rdQLenPdf::29                      0                       # What read queue length does an incoming req see
system.mem_ctrls.rdQLenPdf::30                      0                       # What read queue length does an incoming req see
system.mem_ctrls.rdQLenPdf::31                      0                       # What read queue length does an incoming req see
system.mem_ctrls.wrQLenPdf::0                       0                       # What write queue length does an incoming req see
system.mem_ctrls.wrQLenPdf::1                       0                       # What write queue length does an incoming req see
system.mem_ctrls.wrQLenPdf::2                       0                       # What write queue length does an incoming req see
system.mem_ctrls.wrQLenPdf::3                       0                       # What write queue length does an incoming req see
system.mem_ctrls.wrQLenPdf::4                       0                       # What write queue length does an incoming req see
system.mem_ctrls.wrQLenPdf::5                       0                       # What write queue length does an incoming req see
system.mem_ctrls.wrQLenPdf::6                       0                       # What write queue length does an incoming req see
system.mem_ctrls.wrQLenPdf::7                       0                       # What write queue length does an incoming req see
system.mem_ctrls.wrQLenPdf::8                       0                       # What write queue length does an incoming req see
system.mem_ctrls.wrQLenPdf::9                       0                       # What write queue length does an incoming req see
system.mem_ctrls.wrQLenPdf::10                      0                       # What write queue length does an incoming req see
system.mem_ctrls.wrQLenPdf::11                      0                       # What write queue length does an incoming req see
system.mem_ctrls.wrQLenPdf::12                      0                       # What write queue length does an incoming req see
system.mem_ctrls.wrQLenPdf::13                      0                       # What write queue length does an incoming req see
system.mem_ctrls.wrQLenPdf::14                      0                       # What write queue length does an incoming req see
system.mem_ctrls.wrQLenPdf::15                    858                       # What write queue length does an incoming req see
system.mem_ctrls.wrQLenPdf::16                    931                       # What write queue length does an incoming req see
system.mem_ctrls.wrQLenPdf::17                  45493                       # What write queue length does an incoming req see
system.mem_ctrls.wrQLenPdf::18                  46198                       # What write queue length does an incoming req see
system.mem_ctrls.wrQLenPdf::19                  46199                       # What write queue length does an incoming req see
system.mem_ctrls.wrQLenPdf::20                  46214                       # What write queue length does an incoming req see
system.mem_ctrls.wrQLenPdf::21                  46203                       # What write queue length does an incoming req see
system.mem_ctrls.wrQLenPdf::22                  46212                       # What write queue length does an incoming req see
system.mem_ctrls.wrQLenPdf::23                  46203                       # What write queue length does an incoming req see
system.mem_ctrls.wrQLenPdf::24                  46226                       # What write queue length does an incoming req see
system.mem_ctrls.wrQLenPdf::25                  46210                       # What write queue length does an incoming req see
system.mem_ctrls.wrQLenPdf::26                  46197                       # What write queue length does an incoming req see
system.mem_ctrls.wrQLenPdf::27                  46198                       # What write queue length does an incoming req see
system.mem_ctrls.wrQLenPdf::28                  46188                       # What write queue length does an incoming req see
system.mem_ctrls.wrQLenPdf::29                  46166                       # What write queue length does an incoming req see
system.mem_ctrls.wrQLenPdf::30                  46170                       # What write queue length does an incoming req see
system.mem_ctrls.wrQLenPdf::31                  46156                       # What write queue length does an incoming req see
system.mem_ctrls.wrQLenPdf::32                  46150                       # What write queue length does an incoming req see
system.mem_ctrls.wrQLenPdf::33                      7                       # What write queue length does an incoming req see
system.mem_ctrls.wrQLenPdf::34                      0                       # What write queue length does an incoming req see
system.mem_ctrls.wrQLenPdf::35                      0                       # What write queue length does an incoming req see
system.mem_ctrls.wrQLenPdf::36                      0                       # What write queue length does an incoming req see
system.mem_ctrls.wrQLenPdf::37                      0                       # What write queue length does an incoming req see
system.mem_ctrls.wrQLenPdf::38                      0                       # What write queue length does an incoming req see
system.mem_ctrls.wrQLenPdf::39                      0                       # What write queue length does an incoming req see
system.mem_ctrls.wrQLenPdf::40                      0                       # What write queue length does an incoming req see
system.mem_ctrls.wrQLenPdf::41                      0                       # What write queue length does an incoming req see
system.mem_ctrls.wrQLenPdf::42                      0                       # What write queue length does an incoming req see
system.mem_ctrls.wrQLenPdf::43                      0                       # What write queue length does an incoming req see
system.mem_ctrls.wrQLenPdf::44                      0                       # What write queue length does an incoming req see
system.mem_ctrls.wrQLenPdf::45                      0                       # What write queue length does an incoming req see
system.mem_ctrls.wrQLenPdf::46                      0                       # What write queue length does an incoming req see
system.mem_ctrls.wrQLenPdf::47                      0                       # What write queue length does an incoming req see
system.mem_ctrls.wrQLenPdf::48                      0                       # What write queue length does an incoming req see
system.mem_ctrls.wrQLenPdf::49                      0                       # What write queue length does an incoming req see
system.mem_ctrls.wrQLenPdf::50                      0                       # What write queue length does an incoming req see
system.mem_ctrls.wrQLenPdf::51                      0                       # What write queue length does an incoming req see
system.mem_ctrls.wrQLenPdf::52                      0                       # What write queue length does an incoming req see
system.mem_ctrls.wrQLenPdf::53                      0                       # What write queue length does an incoming req see
system.mem_ctrls.wrQLenPdf::54                      0                       # What write queue length does an incoming req see
system.mem_ctrls.wrQLenPdf::55                      0                       # What write queue length does an incoming req see
system.mem_ctrls.wrQLenPdf::56                      0                       # What write queue length does an incoming req see
system.mem_ctrls.wrQLenPdf::57                      0                       # What write queue length does an incoming req see
system.mem_ctrls.wrQLenPdf::58                      0                       # What write queue length does an incoming req see
system.mem_ctrls.wrQLenPdf::59                      0                       # What write queue length does an incoming req see
system.mem_ctrls.wrQLenPdf::60                      0                       # What write queue length does an incoming req see
system.mem_ctrls.wrQLenPdf::61                      0                       # What write queue length does an incoming req see
system.mem_ctrls.wrQLenPdf::62                      0                       # What write queue length does an incoming req see
system.mem_ctrls.wrQLenPdf::63                      0                       # What write queue length does an incoming req see
system.mem_ctrls.bytesPerActivate::samples       753584                       # Bytes accessed per row activation
system.mem_ctrls.bytesPerActivate::mean    173.551116                       # Bytes accessed per row activation
system.mem_ctrls.bytesPerActivate::gmean   122.362189                       # Bytes accessed per row activation
system.mem_ctrls.bytesPerActivate::stdev   192.691145                       # Bytes accessed per row activation
system.mem_ctrls.bytesPerActivate::0-127       361864     48.02%     48.02% # Bytes accessed per row activation
system.mem_ctrls.bytesPerActivate::128-255       223726     29.69%     77.71% # Bytes accessed per row activation
system.mem_ctrls.bytesPerActivate::256-383       106430     14.12%     91.83% # Bytes accessed per row activation
system.mem_ctrls.bytesPerActivate::384-511        16597      2.20%     94.03% # Bytes accessed per row activation
system.mem_ctrls.bytesPerActivate::512-639         9677      1.28%     95.32% # Bytes accessed per row activation
system.mem_ctrls.bytesPerActivate::640-767         6694      0.89%     96.21% # Bytes accessed per row activation
system.mem_ctrls.bytesPerActivate::768-895         5590      0.74%     96.95% # Bytes accessed per row activation
system.mem_ctrls.bytesPerActivate::896-1023         4557      0.60%     97.55% # Bytes accessed per row activation
system.mem_ctrls.bytesPerActivate::1024-1151        18449      2.45%    100.00% # Bytes accessed per row activation
system.mem_ctrls.bytesPerActivate::total       753584                       # Bytes accessed per row activation
system.mem_ctrls.rdPerTurnAround::samples        46145                       # Reads before turning the bus around for writes
system.mem_ctrls.rdPerTurnAround::mean      28.244469                       # Reads before turning the bus around for writes
system.mem_ctrls.rdPerTurnAround::stdev     44.624189                       # Reads before turning the bus around for writes
system.mem_ctrls.rdPerTurnAround::0-255         46038     99.77%     99.77% # Reads before turning the bus around for writes
system.mem_ctrls.rdPerTurnAround::256-511           95      0.21%     99.97% # Reads before turning the bus around for writes
system.mem_ctrls.rdPerTurnAround::512-767            4      0.01%     99.98% # Reads before turning the bus around for writes
system.mem_ctrls.rdPerTurnAround::768-1023            1      0.00%     99.98% # Reads before turning the bus around for writes
system.mem_ctrls.rdPerTurnAround::1024-1279            1      0.00%     99.99% # Reads before turning the bus around for writes
system.mem_ctrls.rdPerTurnAround::2048-2303            2      0.00%     99.99% # Reads before turning the bus around for writes
system.mem_ctrls.rdPerTurnAround::3072-3327            2      0.00%    100.00% # Reads before turning the bus around for writes
system.mem_ctrls.rdPerTurnAround::3840-4095            1      0.00%    100.00% # Reads before turning the bus around for writes
system.mem_ctrls.rdPerTurnAround::4352-4607            1      0.00%    100.00% # Reads before turning the bus around for writes
system.mem_ctrls.rdPerTurnAround::total         46145                       # Reads before turning the bus around for writes
system.mem_ctrls.wrPerTurnAround::samples        46145                       # Writes before turning the bus around for reads
system.mem_ctrls.wrPerTurnAround::mean      16.040286                       # Writes before turning the bus around for reads
system.mem_ctrls.wrPerTurnAround::gmean     16.037906                       # Writes before turning the bus around for reads
system.mem_ctrls.wrPerTurnAround::stdev      0.288929                       # Writes before turning the bus around for reads
system.mem_ctrls.wrPerTurnAround::16            45213     97.98%     97.98% # Writes before turning the bus around for reads
system.mem_ctrls.wrPerTurnAround::17               48      0.10%     98.08% # Writes before turning the bus around for reads
system.mem_ctrls.wrPerTurnAround::18              867      1.88%     99.96% # Writes before turning the bus around for reads
system.mem_ctrls.wrPerTurnAround::19                9      0.02%     99.98% # Writes before turning the bus around for reads
system.mem_ctrls.wrPerTurnAround::20                1      0.00%     99.98% # Writes before turning the bus around for reads
system.mem_ctrls.wrPerTurnAround::21                2      0.00%     99.99% # Writes before turning the bus around for reads
system.mem_ctrls.wrPerTurnAround::22                1      0.00%     99.99% # Writes before turning the bus around for reads
system.mem_ctrls.wrPerTurnAround::23                3      0.01%    100.00% # Writes before turning the bus around for reads
system.mem_ctrls.wrPerTurnAround::25                1      0.00%    100.00% # Writes before turning the bus around for reads
system.mem_ctrls.wrPerTurnAround::total         46145                       # Writes before turning the bus around for reads
system.mem_ctrls.totQLat                  17366301370                       # Total ticks spent queuing
system.mem_ctrls.totMemAccLat             41803926370                       # Total ticks spent from burst creation until serviced by the DRAM
system.mem_ctrls.totBusLat                 6516700000                       # Total ticks spent in databus transfers
system.mem_ctrls.avgQLat                     13324.46                       # Average queueing delay per DRAM burst
system.mem_ctrls.avgBusLat                    5000.00                       # Average bus latency per DRAM burst
system.mem_ctrls.avgMemAccLat                32074.46                       # Average memory access latency per DRAM burst
system.mem_ctrls.avgRdBW                        35.43                       # Average DRAM read bandwidth in MiByte/s
system.mem_ctrls.avgWrBW                        20.12                       # Average achieved write bandwidth in MiByte/s
system.mem_ctrls.avgRdBWSys                     35.44                       # Average system read bandwidth in MiByte/s
system.mem_ctrls.avgWrBWSys                     20.12                       # Average system write bandwidth in MiByte/s
system.mem_ctrls.peakBW                      12800.00                       # Theoretical peak bandwidth in MiByte/s
system.mem_ctrls.busUtil                         0.43                       # Data bus utilization in percentage
system.mem_ctrls.busUtilRead                     0.28                       # Data bus utilization in percentage for reads
system.mem_ctrls.busUtilWrite                    0.16                       # Data bus utilization in percentage for writes
system.mem_ctrls.avgRdQLen                       1.00                       # Average read queue length when enqueuing
system.mem_ctrls.avgWrQLen                      25.51                       # Average write queue length when enqueuing
system.mem_ctrls.readRowHits                   968630                       # Number of row buffer hits during reads
system.mem_ctrls.writeRowHits                  321305                       # Number of row buffer hits during writes
system.mem_ctrls.readRowHitRate                 74.32                       # Row buffer hit rate for reads
system.mem_ctrls.writeRowHitRate                43.41                       # Row buffer hit rate for writes
system.mem_ctrls.avgGap                    1151816.07                       # Average gap between requests
system.mem_ctrls.pageHitRate                    63.12                       # Row buffer hit rate, read and write combined
system.mem_ctrls_0.actEnergy               2909768400                       # Energy for activate commands per rank (pJ)
system.mem_ctrls_0.preEnergy               1587671250                       # Energy for precharge commands per rank (pJ)
system.mem_ctrls_0.readEnergy              5279289600                       # Energy for read commands per rank (pJ)
system.mem_ctrls_0.writeEnergy             2446763760                       # Energy for write commands per rank (pJ)
system.mem_ctrls_0.refreshEnergy         154529007360                       # Energy for refresh commands per rank (pJ)
system.mem_ctrls_0.actBackEnergy         310896959625                       # Energy for active background per rank (pJ)
system.mem_ctrls_0.preBackEnergy         1146822792750                       # Energy for precharge background per rank (pJ)
system.mem_ctrls_0.totalEnergy           1624472252745                       # Total energy per rank (pJ)
system.mem_ctrls_0.averagePower            686.619431                       # Core power per rank (mW)
system.mem_ctrls_0.memoryStateTime::IDLE 1901327842252                       # Time in different power states
system.mem_ctrls_0.memoryStateTime::REF   78624520000                       # Time in different power states
system.mem_ctrls_0.memoryStateTime::PRE_PDN            0                       # Time in different power states
system.mem_ctrls_0.memoryStateTime::ACT  374625923748                       # Time in different power states
system.mem_ctrls_0.memoryStateTime::ACT_PDN            0                       # Time in different power states
system.mem_ctrls_1.actEnergy               2872308600                       # Energy for activate commands per rank (pJ)
system.mem_ctrls_1.preEnergy               1567231875                       # Energy for precharge commands per rank (pJ)
system.mem_ctrls_1.readEnergy              5193154200                       # Energy for read commands per rank (pJ)
system.mem_ctrls_1.writeEnergy             2397645360                       # Energy for write commands per rank (pJ)
system.mem_ctrls_1.refreshEnergy         154529007360                       # Energy for refresh commands per rank (pJ)
system.mem_ctrls_1.actBackEnergy         307820170305                       # Energy for active background per rank (pJ)
system.mem_ctrls_1.preBackEnergy         1149521730750                       # Energy for precharge background per rank (pJ)
system.mem_ctrls_1.totalEnergy           1623901248450                       # Total energy per rank (pJ)
system.mem_ctrls_1.averagePower            686.378083                       # Core power per rank (mW)
system.mem_ctrls_1.memoryStateTime::IDLE 1905125876000                       # Time in different power states
system.mem_ctrls_1.memoryStateTime::REF   78624520000                       # Time in different power states
system.mem_ctrls_1.memoryStateTime::PRE_PDN            0                       # Time in different power states
system.mem_ctrls_1.memoryStateTime::ACT  370827176500                       # Time in different power states
system.mem_ctrls_1.memoryStateTime::ACT_PDN            0                       # Time in different power states
system.cpu_voltage_domain.voltage                   1                       # Voltage in Volts
system.cpu_clk_domain.clock                       500                       # Clock period in ticks
system.cpu0.apic_clk_domain.clock                8000                       # Clock period in ticks
system.cpu0.numCycles                      4707814174                       # number of cpu cycles simulated
system.cpu0.numWorkItemsStarted                     0                       # number of work items this cpu started
system.cpu0.numWorkItemsCompleted                   0                       # number of work items this cpu completed
system.cpu0.kern.inst.arm                           0                       # number of arm instructions executed
system.cpu0.kern.inst.quiesce                       0                       # number of quiesce instructions executed
system.cpu0.committedInsts                    2164992                       # Number of instructions committed
system.cpu0.committedOps                      4672320                       # Number of ops (including micro ops) committed
system.cpu0.num_int_alu_accesses              4575496                       # Number of integer alu accesses
system.cpu0.num_fp_alu_accesses                    39                       # Number of float alu accesses
system.cpu0.num_func_calls                     131382                       # number of times a function call or return occured
system.cpu0.num_conditional_control_insts       345528                       # number of instructions that are conditional controls
system.cpu0.num_int_insts                     4575496                       # number of integer instructions
system.cpu0.num_fp_insts                           39                       # number of float instructions
system.cpu0.num_int_register_reads            9156485                       # number of times the integer registers were read
system.cpu0.num_int_register_writes           3774911                       # number of times the integer registers were written
system.cpu0.num_fp_register_reads                  63                       # number of times the floating registers were read
system.cpu0.num_fp_register_writes                 31                       # number of times the floating registers were written
system.cpu0.num_cc_register_reads             2759827                       # number of times the CC registers were read
system.cpu0.num_cc_register_writes            1442621                       # number of times the CC registers were written
system.cpu0.num_mem_refs                      1053216                       # number of memory refs
system.cpu0.num_load_insts                     650737                       # Number of load instructions
system.cpu0.num_store_insts                    402479                       # Number of store instructions
system.cpu0.num_idle_cycles              4697899037.834126                       # Number of idle cycles
system.cpu0.num_busy_cycles              9915136.165874                       # Number of busy cycles
system.cpu0.not_idle_fraction                0.002106                       # Percentage of non-idle cycles
system.cpu0.idle_fraction                    0.997894                       # Percentage of idle cycles
system.cpu0.Branches                           516934                       # Number of branches fetched
system.cpu0.op_class::No_OpClass                76054      1.63%      1.63% # Class of executed instruction
system.cpu0.op_class::IntAlu                  3509646     75.12%     76.74% # Class of executed instruction
system.cpu0.op_class::IntMult                    8008      0.17%     76.91% # Class of executed instruction
system.cpu0.op_class::IntDiv                    25388      0.54%     77.46% # Class of executed instruction
system.cpu0.op_class::FloatAdd                     30      0.00%     77.46% # Class of executed instruction
system.cpu0.op_class::FloatCmp                      0      0.00%     77.46% # Class of executed instruction
system.cpu0.op_class::FloatCvt                      0      0.00%     77.46% # Class of executed instruction
system.cpu0.op_class::FloatMult                     0      0.00%     77.46% # Class of executed instruction
system.cpu0.op_class::FloatDiv                      0      0.00%     77.46% # Class of executed instruction
system.cpu0.op_class::FloatSqrt                     0      0.00%     77.46% # Class of executed instruction
system.cpu0.op_class::SimdAdd                       0      0.00%     77.46% # Class of executed instruction
system.cpu0.op_class::SimdAddAcc                    0      0.00%     77.46% # Class of executed instruction
system.cpu0.op_class::SimdAlu                       0      0.00%     77.46% # Class of executed instruction
system.cpu0.op_class::SimdCmp                       0      0.00%     77.46% # Class of executed instruction
system.cpu0.op_class::SimdCvt                       0      0.00%     77.46% # Class of executed instruction
system.cpu0.op_class::SimdMisc                      0      0.00%     77.46% # Class of executed instruction
system.cpu0.op_class::SimdMult                      0      0.00%     77.46% # Class of executed instruction
system.cpu0.op_class::SimdMultAcc                   0      0.00%     77.46% # Class of executed instruction
system.cpu0.op_class::SimdShift                     0      0.00%     77.46% # Class of executed instruction
system.cpu0.op_class::SimdShiftAcc                  0      0.00%     77.46% # Class of executed instruction
system.cpu0.op_class::SimdSqrt                      0      0.00%     77.46% # Class of executed instruction
system.cpu0.op_class::SimdFloatAdd                  0      0.00%     77.46% # Class of executed instruction
system.cpu0.op_class::SimdFloatAlu                  0      0.00%     77.46% # Class of executed instruction
system.cpu0.op_class::SimdFloatCmp                  0      0.00%     77.46% # Class of executed instruction
system.cpu0.op_class::SimdFloatCvt                  0      0.00%     77.46% # Class of executed instruction
system.cpu0.op_class::SimdFloatDiv                  0      0.00%     77.46% # Class of executed instruction
system.cpu0.op_class::SimdFloatMisc                 0      0.00%     77.46% # Class of executed instruction
system.cpu0.op_class::SimdFloatMult                 0      0.00%     77.46% # Class of executed instruction
system.cpu0.op_class::SimdFloatMultAcc              0      0.00%     77.46% # Class of executed instruction
system.cpu0.op_class::SimdFloatSqrt                 0      0.00%     77.46% # Class of executed instruction
system.cpu0.op_class::MemRead                  650737     13.93%     91.39% # Class of executed instruction
system.cpu0.op_class::MemWrite                 402479      8.61%    100.00% # Class of executed instruction
system.cpu0.op_class::IprAccess                     0      0.00%    100.00% # Class of executed instruction
system.cpu0.op_class::InstPrefetch                  0      0.00%    100.00% # Class of executed instruction
system.cpu0.op_class::total                   4672342                       # Class of executed instruction
system.cpu1.apic_clk_domain.clock                8000                       # Clock period in ticks
system.cpu1.numCycles                      4711116702                       # number of cpu cycles simulated
system.cpu1.numWorkItemsStarted                     0                       # number of work items this cpu started
system.cpu1.numWorkItemsCompleted                   0                       # number of work items this cpu completed
system.cpu1.kern.inst.arm                           0                       # number of arm instructions executed
system.cpu1.kern.inst.quiesce                       0                       # number of quiesce instructions executed
system.cpu1.committedInsts                    4092303                       # Number of instructions committed
system.cpu1.committedOps                      8371170                       # Number of ops (including micro ops) committed
system.cpu1.num_int_alu_accesses              8143305                       # Number of integer alu accesses
system.cpu1.num_fp_alu_accesses                   372                       # Number of float alu accesses
system.cpu1.num_func_calls                     183282                       # number of times a function call or return occured
system.cpu1.num_conditional_control_insts       676663                       # number of instructions that are conditional controls
system.cpu1.num_int_insts                     8143305                       # number of integer instructions
system.cpu1.num_fp_insts                          372                       # number of float instructions
system.cpu1.num_int_register_reads           15857898                       # number of times the integer registers were read
system.cpu1.num_int_register_writes           6711931                       # number of times the integer registers were written
system.cpu1.num_fp_register_reads                 596                       # number of times the floating registers were read
system.cpu1.num_fp_register_writes                261                       # number of times the floating registers were written
system.cpu1.num_cc_register_reads             5122359                       # number of times the CC registers were read
system.cpu1.num_cc_register_writes            3100102                       # number of times the CC registers were written
system.cpu1.num_mem_refs                      1691552                       # number of memory refs
system.cpu1.num_load_insts                    1059246                       # Number of load instructions
system.cpu1.num_store_insts                    632306                       # Number of store instructions
system.cpu1.num_idle_cycles              4690408682.273638                       # Number of idle cycles
system.cpu1.num_busy_cycles              20708019.726362                       # Number of busy cycles
system.cpu1.not_idle_fraction                0.004396                       # Percentage of non-idle cycles
system.cpu1.idle_fraction                    0.995604                       # Percentage of idle cycles
system.cpu1.Branches                           925713                       # Number of branches fetched
system.cpu1.op_class::No_OpClass                82939      0.99%      0.99% # Class of executed instruction
system.cpu1.op_class::IntAlu                  6561231     78.38%     79.37% # Class of executed instruction
system.cpu1.op_class::IntMult                    9765      0.12%     79.49% # Class of executed instruction
system.cpu1.op_class::IntDiv                    25525      0.30%     79.79% # Class of executed instruction
system.cpu1.op_class::FloatAdd                    244      0.00%     79.79% # Class of executed instruction
system.cpu1.op_class::FloatCmp                      0      0.00%     79.79% # Class of executed instruction
system.cpu1.op_class::FloatCvt                      0      0.00%     79.79% # Class of executed instruction
system.cpu1.op_class::FloatMult                     0      0.00%     79.79% # Class of executed instruction
system.cpu1.op_class::FloatDiv                      0      0.00%     79.79% # Class of executed instruction
system.cpu1.op_class::FloatSqrt                     0      0.00%     79.79% # Class of executed instruction
system.cpu1.op_class::SimdAdd                       0      0.00%     79.79% # Class of executed instruction
system.cpu1.op_class::SimdAddAcc                    0      0.00%     79.79% # Class of executed instruction
system.cpu1.op_class::SimdAlu                       0      0.00%     79.79% # Class of executed instruction
system.cpu1.op_class::SimdCmp                       0      0.00%     79.79% # Class of executed instruction
system.cpu1.op_class::SimdCvt                       0      0.00%     79.79% # Class of executed instruction
system.cpu1.op_class::SimdMisc                      0      0.00%     79.79% # Class of executed instruction
system.cpu1.op_class::SimdMult                      0      0.00%     79.79% # Class of executed instruction
system.cpu1.op_class::SimdMultAcc                   0      0.00%     79.79% # Class of executed instruction
system.cpu1.op_class::SimdShift                     0      0.00%     79.79% # Class of executed instruction
system.cpu1.op_class::SimdShiftAcc                  0      0.00%     79.79% # Class of executed instruction
system.cpu1.op_class::SimdSqrt                      0      0.00%     79.79% # Class of executed instruction
system.cpu1.op_class::SimdFloatAdd                  0      0.00%     79.79% # Class of executed instruction
system.cpu1.op_class::SimdFloatAlu                  0      0.00%     79.79% # Class of executed instruction
system.cpu1.op_class::SimdFloatCmp                  0      0.00%     79.79% # Class of executed instruction
system.cpu1.op_class::SimdFloatCvt                  0      0.00%     79.79% # Class of executed instruction
system.cpu1.op_class::SimdFloatDiv                  0      0.00%     79.79% # Class of executed instruction
system.cpu1.op_class::SimdFloatMisc                 0      0.00%     79.79% # Class of executed instruction
system.cpu1.op_class::SimdFloatMult                 0      0.00%     79.79% # Class of executed instruction
system.cpu1.op_class::SimdFloatMultAcc              0      0.00%     79.79% # Class of executed instruction
system.cpu1.op_class::SimdFloatSqrt                 0      0.00%     79.79% # Class of executed instruction
system.cpu1.op_class::MemRead                 1059246     12.65%     92.45% # Class of executed instruction
system.cpu1.op_class::MemWrite                 632306      7.55%    100.00% # Class of executed instruction
system.cpu1.op_class::IprAccess                     0      0.00%    100.00% # Class of executed instruction
system.cpu1.op_class::InstPrefetch                  0      0.00%    100.00% # Class of executed instruction
system.cpu1.op_class::total                   8371256                       # Class of executed instruction
system.cpu2.apic_clk_domain.clock                8000                       # Clock period in ticks
system.cpu2.numCycles                      4703245159                       # number of cpu cycles simulated
system.cpu2.numWorkItemsStarted                     0                       # number of work items this cpu started
system.cpu2.numWorkItemsCompleted                   0                       # number of work items this cpu completed
system.cpu2.kern.inst.arm                           0                       # number of arm instructions executed
system.cpu2.kern.inst.quiesce                       0                       # number of quiesce instructions executed
system.cpu2.committedInsts                 1297221465                       # Number of instructions committed
system.cpu2.committedOps                   2348186455                       # Number of ops (including micro ops) committed
system.cpu2.num_int_alu_accesses           1506224879                       # Number of integer alu accesses
system.cpu2.num_fp_alu_accesses            1130300518                       # Number of float alu accesses
system.cpu2.num_func_calls                     782023                       # number of times a function call or return occured
system.cpu2.num_conditional_control_insts    160849240                       # number of instructions that are conditional controls
system.cpu2.num_int_insts                  1506224879                       # number of integer instructions
system.cpu2.num_fp_insts                   1130300518                       # number of float instructions
system.cpu2.num_int_register_reads         2939121021                       # number of times the integer registers were read
system.cpu2.num_int_register_writes        1033385314                       # number of times the integer registers were written
system.cpu2.num_fp_register_reads          1382500686                       # number of times the floating registers were read
system.cpu2.num_fp_register_writes         1075410587                       # number of times the floating registers were written
system.cpu2.num_cc_register_reads           938756423                       # number of times the CC registers were read
system.cpu2.num_cc_register_writes          527892992                       # number of times the CC registers were written
system.cpu2.num_mem_refs                    388211500                       # number of memory refs
system.cpu2.num_load_insts                  349875544                       # Number of load instructions
system.cpu2.num_store_insts                  38335956                       # Number of store instructions
system.cpu2.num_idle_cycles              23028164.331159                       # Number of idle cycles
system.cpu2.num_busy_cycles              4680216994.668840                       # Number of busy cycles
system.cpu2.not_idle_fraction                0.995104                       # Percentage of non-idle cycles
system.cpu2.idle_fraction                    0.004896                       # Percentage of idle cycles
system.cpu2.Branches                        166216889                       # Number of branches fetched
system.cpu2.op_class::No_OpClass              3897159      0.17%      0.17% # Class of executed instruction
system.cpu2.op_class::IntAlu               1228382020     52.31%     52.48% # Class of executed instruction
system.cpu2.op_class::IntMult                 4266947      0.18%     52.66% # Class of executed instruction
system.cpu2.op_class::IntDiv                      721      0.00%     52.66% # Class of executed instruction
system.cpu2.op_class::FloatAdd              723444434     30.81%     83.47% # Class of executed instruction
system.cpu2.op_class::FloatCmp                      0      0.00%     83.47% # Class of executed instruction
system.cpu2.op_class::FloatCvt                      0      0.00%     83.47% # Class of executed instruction
system.cpu2.op_class::FloatMult                     0      0.00%     83.47% # Class of executed instruction
system.cpu2.op_class::FloatDiv                      0      0.00%     83.47% # Class of executed instruction
system.cpu2.op_class::FloatSqrt                     0      0.00%     83.47% # Class of executed instruction
system.cpu2.op_class::SimdAdd                       0      0.00%     83.47% # Class of executed instruction
system.cpu2.op_class::SimdAddAcc                    0      0.00%     83.47% # Class of executed instruction
system.cpu2.op_class::SimdAlu                       0      0.00%     83.47% # Class of executed instruction
system.cpu2.op_class::SimdCmp                       0      0.00%     83.47% # Class of executed instruction
system.cpu2.op_class::SimdCvt                       0      0.00%     83.47% # Class of executed instruction
system.cpu2.op_class::SimdMisc                      0      0.00%     83.47% # Class of executed instruction
system.cpu2.op_class::SimdMult                      0      0.00%     83.47% # Class of executed instruction
system.cpu2.op_class::SimdMultAcc                   0      0.00%     83.47% # Class of executed instruction
system.cpu2.op_class::SimdShift                     0      0.00%     83.47% # Class of executed instruction
system.cpu2.op_class::SimdShiftAcc                  0      0.00%     83.47% # Class of executed instruction
system.cpu2.op_class::SimdSqrt                      0      0.00%     83.47% # Class of executed instruction
system.cpu2.op_class::SimdFloatAdd                  0      0.00%     83.47% # Class of executed instruction
system.cpu2.op_class::SimdFloatAlu                  0      0.00%     83.47% # Class of executed instruction
system.cpu2.op_class::SimdFloatCmp                  0      0.00%     83.47% # Class of executed instruction
system.cpu2.op_class::SimdFloatCvt                  0      0.00%     83.47% # Class of executed instruction
system.cpu2.op_class::SimdFloatDiv                  0      0.00%     83.47% # Class of executed instruction
system.cpu2.op_class::SimdFloatMisc                 0      0.00%     83.47% # Class of executed instruction
system.cpu2.op_class::SimdFloatMult                 0      0.00%     83.47% # Class of executed instruction
system.cpu2.op_class::SimdFloatMultAcc              0      0.00%     83.47% # Class of executed instruction
system.cpu2.op_class::SimdFloatSqrt                 0      0.00%     83.47% # Class of executed instruction
system.cpu2.op_class::MemRead               349875544     14.90%     98.37% # Class of executed instruction
system.cpu2.op_class::MemWrite               38335956      1.63%    100.00% # Class of executed instruction
system.cpu2.op_class::IprAccess                     0      0.00%    100.00% # Class of executed instruction
system.cpu2.op_class::InstPrefetch                  0      0.00%    100.00% # Class of executed instruction
system.cpu2.op_class::total                2348202781                       # Class of executed instruction
system.cpu3.apic_clk_domain.clock                8000                       # Clock period in ticks
system.cpu3.numCycles                      4707131810                       # number of cpu cycles simulated
system.cpu3.numWorkItemsStarted                     0                       # number of work items this cpu started
system.cpu3.numWorkItemsCompleted                   0                       # number of work items this cpu completed
system.cpu3.kern.inst.arm                           0                       # number of arm instructions executed
system.cpu3.kern.inst.quiesce                       0                       # number of quiesce instructions executed
system.cpu3.committedInsts                    4717127                       # Number of instructions committed
system.cpu3.committedOps                      9490749                       # Number of ops (including micro ops) committed
system.cpu3.num_int_alu_accesses              9320161                       # Number of integer alu accesses
system.cpu3.num_fp_alu_accesses                  1778                       # Number of float alu accesses
system.cpu3.num_func_calls                     244938                       # number of times a function call or return occured
system.cpu3.num_conditional_control_insts       818008                       # number of instructions that are conditional controls
system.cpu3.num_int_insts                     9320161                       # number of integer instructions
system.cpu3.num_fp_insts                         1778                       # number of float instructions
system.cpu3.num_int_register_reads           18434449                       # number of times the integer registers were read
system.cpu3.num_int_register_writes           7587383                       # number of times the integer registers were written
system.cpu3.num_fp_register_reads                2988                       # number of times the floating registers were read
system.cpu3.num_fp_register_writes               1416                       # number of times the floating registers were written
system.cpu3.num_cc_register_reads             6107030                       # number of times the CC registers were read
system.cpu3.num_cc_register_writes            3237148                       # number of times the CC registers were written
system.cpu3.num_mem_refs                      2107487                       # number of memory refs
system.cpu3.num_load_insts                    1365504                       # Number of load instructions
system.cpu3.num_store_insts                    741983                       # Number of store instructions
system.cpu3.num_idle_cycles              4686125786.840238                       # Number of idle cycles
system.cpu3.num_busy_cycles              21006023.159762                       # Number of busy cycles
system.cpu3.not_idle_fraction                0.004463                       # Percentage of non-idle cycles
system.cpu3.idle_fraction                    0.995537                       # Percentage of idle cycles
system.cpu3.Branches                          1108655                       # Number of branches fetched
system.cpu3.op_class::No_OpClass                73892      0.78%      0.78% # Class of executed instruction
system.cpu3.op_class::IntAlu                  7274581     76.65%     77.43% # Class of executed instruction
system.cpu3.op_class::IntMult                    8455      0.09%     77.52% # Class of executed instruction
system.cpu3.op_class::IntDiv                    25079      0.26%     77.78% # Class of executed instruction
system.cpu3.op_class::FloatAdd                   1344      0.01%     77.79% # Class of executed instruction
system.cpu3.op_class::FloatCmp                      0      0.00%     77.79% # Class of executed instruction
system.cpu3.op_class::FloatCvt                      0      0.00%     77.79% # Class of executed instruction
system.cpu3.op_class::FloatMult                     0      0.00%     77.79% # Class of executed instruction
system.cpu3.op_class::FloatDiv                      0      0.00%     77.79% # Class of executed instruction
system.cpu3.op_class::FloatSqrt                     0      0.00%     77.79% # Class of executed instruction
system.cpu3.op_class::SimdAdd                       0      0.00%     77.79% # Class of executed instruction
system.cpu3.op_class::SimdAddAcc                    0      0.00%     77.79% # Class of executed instruction
system.cpu3.op_class::SimdAlu                       0      0.00%     77.79% # Class of executed instruction
system.cpu3.op_class::SimdCmp                       0      0.00%     77.79% # Class of executed instruction
system.cpu3.op_class::SimdCvt                       0      0.00%     77.79% # Class of executed instruction
system.cpu3.op_class::SimdMisc                      0      0.00%     77.79% # Class of executed instruction
system.cpu3.op_class::SimdMult                      0      0.00%     77.79% # Class of executed instruction
system.cpu3.op_class::SimdMultAcc                   0      0.00%     77.79% # Class of executed instruction
system.cpu3.op_class::SimdShift                     0      0.00%     77.79% # Class of executed instruction
system.cpu3.op_class::SimdShiftAcc                  0      0.00%     77.79% # Class of executed instruction
system.cpu3.op_class::SimdSqrt                      0      0.00%     77.79% # Class of executed instruction
system.cpu3.op_class::SimdFloatAdd                  0      0.00%     77.79% # Class of executed instruction
system.cpu3.op_class::SimdFloatAlu                  0      0.00%     77.79% # Class of executed instruction
system.cpu3.op_class::SimdFloatCmp                  0      0.00%     77.79% # Class of executed instruction
system.cpu3.op_class::SimdFloatCvt                  0      0.00%     77.79% # Class of executed instruction
system.cpu3.op_class::SimdFloatDiv                  0      0.00%     77.79% # Class of executed instruction
system.cpu3.op_class::SimdFloatMisc                 0      0.00%     77.79% # Class of executed instruction
system.cpu3.op_class::SimdFloatMult                 0      0.00%     77.79% # Class of executed instruction
system.cpu3.op_class::SimdFloatMultAcc              0      0.00%     77.79% # Class of executed instruction
system.cpu3.op_class::SimdFloatSqrt                 0      0.00%     77.79% # Class of executed instruction
system.cpu3.op_class::MemRead                 1365504     14.39%     92.18% # Class of executed instruction
system.cpu3.op_class::MemWrite                 741983      7.82%    100.00% # Class of executed instruction
system.cpu3.op_class::IprAccess                     0      0.00%    100.00% # Class of executed instruction
system.cpu3.op_class::InstPrefetch                  0      0.00%    100.00% # Class of executed instruction
system.cpu3.op_class::total                   9490838                       # Class of executed instruction
system.iobus.trans_dist::ReadReq                  403                       # Transaction distribution
system.iobus.trans_dist::ReadResp                 403                       # Transaction distribution
system.iobus.trans_dist::WriteReq                3062                       # Transaction distribution
system.iobus.trans_dist::WriteResp               3062                       # Transaction distribution
system.iobus.trans_dist::MessageReq                55                       # Transaction distribution
system.iobus.trans_dist::MessageResp               55                       # Transaction distribution
system.iobus.pkt_count_system.pc.south_bridge.io_apic.int_master::system.ruby.l1_cntrl0.sequencer.pio-slave-port           22                       # Packet count per connected master and slave (bytes)
system.iobus.pkt_count_system.pc.south_bridge.io_apic.int_master::system.ruby.l1_cntrl1.sequencer.pio-slave-port           22                       # Packet count per connected master and slave (bytes)
system.iobus.pkt_count_system.pc.south_bridge.io_apic.int_master::system.ruby.l1_cntrl2.sequencer.pio-slave-port           22                       # Packet count per connected master and slave (bytes)
system.iobus.pkt_count_system.pc.south_bridge.io_apic.int_master::system.ruby.l1_cntrl3.sequencer.pio-slave-port           22                       # Packet count per connected master and slave (bytes)
system.iobus.pkt_count_system.pc.south_bridge.io_apic.int_master::total           88                       # Packet count per connected master and slave (bytes)
system.iobus.pkt_count_system.ruby.l1_cntrl0.sequencer.mem-master-port::system.pc.south_bridge.ide.pio          460                       # Packet count per connected master and slave (bytes)
system.iobus.pkt_count_system.ruby.l1_cntrl0.sequencer.mem-master-port::system.pc.south_bridge.io_apic.pio            8                       # Packet count per connected master and slave (bytes)
system.iobus.pkt_count_system.ruby.l1_cntrl0.sequencer.mem-master-port::system.ruby.l1_cntrl0.sequencer.pio-slave-port         1208                       # Packet count per connected master and slave (bytes)
system.iobus.pkt_count_system.ruby.l1_cntrl0.sequencer.mem-master-port::system.ruby.l1_cntrl1.sequencer.pio-slave-port            2                       # Packet count per connected master and slave (bytes)
system.iobus.pkt_count_system.ruby.l1_cntrl0.sequencer.mem-master-port::total         1678                       # Packet count per connected master and slave (bytes)
system.iobus.pkt_count_system.ruby.l1_cntrl1.sequencer.mem-master-port::system.pc.south_bridge.ide.pio          528                       # Packet count per connected master and slave (bytes)
system.iobus.pkt_count_system.ruby.l1_cntrl1.sequencer.mem-master-port::system.pc.south_bridge.io_apic.pio            8                       # Packet count per connected master and slave (bytes)
system.iobus.pkt_count_system.ruby.l1_cntrl1.sequencer.mem-master-port::system.pc.com_1.pio            2                       # Packet count per connected master and slave (bytes)
system.iobus.pkt_count_system.ruby.l1_cntrl1.sequencer.mem-master-port::system.ruby.l1_cntrl0.sequencer.pio-slave-port            2                       # Packet count per connected master and slave (bytes)
system.iobus.pkt_count_system.ruby.l1_cntrl1.sequencer.mem-master-port::system.ruby.l1_cntrl1.sequencer.pio-slave-port         1232                       # Packet count per connected master and slave (bytes)
system.iobus.pkt_count_system.ruby.l1_cntrl1.sequencer.mem-master-port::system.ruby.l1_cntrl2.sequencer.pio-slave-port            6                       # Packet count per connected master and slave (bytes)
system.iobus.pkt_count_system.ruby.l1_cntrl1.sequencer.mem-master-port::total         1778                       # Packet count per connected master and slave (bytes)
system.iobus.pkt_count_system.ruby.l1_cntrl2.sequencer.mem-master-port::system.pc.south_bridge.ide.pio          426                       # Packet count per connected master and slave (bytes)
system.iobus.pkt_count_system.ruby.l1_cntrl2.sequencer.mem-master-port::system.pc.south_bridge.io_apic.pio            8                       # Packet count per connected master and slave (bytes)
system.iobus.pkt_count_system.ruby.l1_cntrl2.sequencer.mem-master-port::system.ruby.l1_cntrl1.sequencer.pio-slave-port            4                       # Packet count per connected master and slave (bytes)
system.iobus.pkt_count_system.ruby.l1_cntrl2.sequencer.mem-master-port::system.ruby.l1_cntrl2.sequencer.pio-slave-port         1224                       # Packet count per connected master and slave (bytes)
system.iobus.pkt_count_system.ruby.l1_cntrl2.sequencer.mem-master-port::system.ruby.l1_cntrl3.sequencer.pio-slave-port            2                       # Packet count per connected master and slave (bytes)
system.iobus.pkt_count_system.ruby.l1_cntrl2.sequencer.mem-master-port::total         1664                       # Packet count per connected master and slave (bytes)
system.iobus.pkt_count_system.ruby.l1_cntrl3.sequencer.mem-master-port::system.pc.south_bridge.ide.pio          426                       # Packet count per connected master and slave (bytes)
system.iobus.pkt_count_system.ruby.l1_cntrl3.sequencer.mem-master-port::system.pc.south_bridge.io_apic.pio            6                       # Packet count per connected master and slave (bytes)
system.iobus.pkt_count_system.ruby.l1_cntrl3.sequencer.mem-master-port::system.pc.com_1.pio          174                       # Packet count per connected master and slave (bytes)
system.iobus.pkt_count_system.ruby.l1_cntrl3.sequencer.mem-master-port::system.ruby.l1_cntrl0.sequencer.pio-slave-port            2                       # Packet count per connected master and slave (bytes)
system.iobus.pkt_count_system.ruby.l1_cntrl3.sequencer.mem-master-port::system.ruby.l1_cntrl1.sequencer.pio-slave-port            2                       # Packet count per connected master and slave (bytes)
system.iobus.pkt_count_system.ruby.l1_cntrl3.sequencer.mem-master-port::system.ruby.l1_cntrl2.sequencer.pio-slave-port            2                       # Packet count per connected master and slave (bytes)
system.iobus.pkt_count_system.ruby.l1_cntrl3.sequencer.mem-master-port::system.ruby.l1_cntrl3.sequencer.pio-slave-port         1220                       # Packet count per connected master and slave (bytes)
system.iobus.pkt_count_system.ruby.l1_cntrl3.sequencer.mem-master-port::total         1832                       # Packet count per connected master and slave (bytes)
system.iobus.pkt_count::total                    7040                       # Packet count per connected master and slave (bytes)
system.iobus.pkt_size_system.pc.south_bridge.io_apic.int_master::system.ruby.l1_cntrl0.sequencer.pio-slave-port           44                       # Cumulative packet size per connected master and slave (bytes)
system.iobus.pkt_size_system.pc.south_bridge.io_apic.int_master::system.ruby.l1_cntrl1.sequencer.pio-slave-port           44                       # Cumulative packet size per connected master and slave (bytes)
system.iobus.pkt_size_system.pc.south_bridge.io_apic.int_master::system.ruby.l1_cntrl2.sequencer.pio-slave-port           44                       # Cumulative packet size per connected master and slave (bytes)
system.iobus.pkt_size_system.pc.south_bridge.io_apic.int_master::system.ruby.l1_cntrl3.sequencer.pio-slave-port           44                       # Cumulative packet size per connected master and slave (bytes)
system.iobus.pkt_size_system.pc.south_bridge.io_apic.int_master::total          176                       # Cumulative packet size per connected master and slave (bytes)
system.iobus.pkt_size_system.ruby.l1_cntrl0.sequencer.mem-master-port::system.pc.south_bridge.ide.pio          260                       # Cumulative packet size per connected master and slave (bytes)
system.iobus.pkt_size_system.ruby.l1_cntrl0.sequencer.mem-master-port::system.pc.south_bridge.io_apic.pio           16                       # Cumulative packet size per connected master and slave (bytes)
system.iobus.pkt_size_system.ruby.l1_cntrl0.sequencer.mem-master-port::system.ruby.l1_cntrl0.sequencer.pio-slave-port         2416                       # Cumulative packet size per connected master and slave (bytes)
system.iobus.pkt_size_system.ruby.l1_cntrl0.sequencer.mem-master-port::system.ruby.l1_cntrl1.sequencer.pio-slave-port            4                       # Cumulative packet size per connected master and slave (bytes)
system.iobus.pkt_size_system.ruby.l1_cntrl0.sequencer.mem-master-port::total         2696                       # Cumulative packet size per connected master and slave (bytes)
system.iobus.pkt_size_system.ruby.l1_cntrl1.sequencer.mem-master-port::system.pc.south_bridge.ide.pio          300                       # Cumulative packet size per connected master and slave (bytes)
system.iobus.pkt_size_system.ruby.l1_cntrl1.sequencer.mem-master-port::system.pc.south_bridge.io_apic.pio           16                       # Cumulative packet size per connected master and slave (bytes)
system.iobus.pkt_size_system.ruby.l1_cntrl1.sequencer.mem-master-port::system.pc.com_1.pio            1                       # Cumulative packet size per connected master and slave (bytes)
system.iobus.pkt_size_system.ruby.l1_cntrl1.sequencer.mem-master-port::system.ruby.l1_cntrl0.sequencer.pio-slave-port            4                       # Cumulative packet size per connected master and slave (bytes)
system.iobus.pkt_size_system.ruby.l1_cntrl1.sequencer.mem-master-port::system.ruby.l1_cntrl1.sequencer.pio-slave-port         2464                       # Cumulative packet size per connected master and slave (bytes)
system.iobus.pkt_size_system.ruby.l1_cntrl1.sequencer.mem-master-port::system.ruby.l1_cntrl2.sequencer.pio-slave-port           12                       # Cumulative packet size per connected master and slave (bytes)
system.iobus.pkt_size_system.ruby.l1_cntrl1.sequencer.mem-master-port::total         2797                       # Cumulative packet size per connected master and slave (bytes)
system.iobus.pkt_size_system.ruby.l1_cntrl2.sequencer.mem-master-port::system.pc.south_bridge.ide.pio          240                       # Cumulative packet size per connected master and slave (bytes)
system.iobus.pkt_size_system.ruby.l1_cntrl2.sequencer.mem-master-port::system.pc.south_bridge.io_apic.pio           16                       # Cumulative packet size per connected master and slave (bytes)
system.iobus.pkt_size_system.ruby.l1_cntrl2.sequencer.mem-master-port::system.ruby.l1_cntrl1.sequencer.pio-slave-port            8                       # Cumulative packet size per connected master and slave (bytes)
system.iobus.pkt_size_system.ruby.l1_cntrl2.sequencer.mem-master-port::system.ruby.l1_cntrl2.sequencer.pio-slave-port         2448                       # Cumulative packet size per connected master and slave (bytes)
system.iobus.pkt_size_system.ruby.l1_cntrl2.sequencer.mem-master-port::system.ruby.l1_cntrl3.sequencer.pio-slave-port            4                       # Cumulative packet size per connected master and slave (bytes)
system.iobus.pkt_size_system.ruby.l1_cntrl2.sequencer.mem-master-port::total         2716                       # Cumulative packet size per connected master and slave (bytes)
system.iobus.pkt_size_system.ruby.l1_cntrl3.sequencer.mem-master-port::system.pc.south_bridge.ide.pio          240                       # Cumulative packet size per connected master and slave (bytes)
system.iobus.pkt_size_system.ruby.l1_cntrl3.sequencer.mem-master-port::system.pc.south_bridge.io_apic.pio           12                       # Cumulative packet size per connected master and slave (bytes)
system.iobus.pkt_size_system.ruby.l1_cntrl3.sequencer.mem-master-port::system.pc.com_1.pio           87                       # Cumulative packet size per connected master and slave (bytes)
system.iobus.pkt_size_system.ruby.l1_cntrl3.sequencer.mem-master-port::system.ruby.l1_cntrl0.sequencer.pio-slave-port            4                       # Cumulative packet size per connected master and slave (bytes)
system.iobus.pkt_size_system.ruby.l1_cntrl3.sequencer.mem-master-port::system.ruby.l1_cntrl1.sequencer.pio-slave-port            4                       # Cumulative packet size per connected master and slave (bytes)
system.iobus.pkt_size_system.ruby.l1_cntrl3.sequencer.mem-master-port::system.ruby.l1_cntrl2.sequencer.pio-slave-port            4                       # Cumulative packet size per connected master and slave (bytes)
system.iobus.pkt_size_system.ruby.l1_cntrl3.sequencer.mem-master-port::system.ruby.l1_cntrl3.sequencer.pio-slave-port         2440                       # Cumulative packet size per connected master and slave (bytes)
system.iobus.pkt_size_system.ruby.l1_cntrl3.sequencer.mem-master-port::total         2791                       # Cumulative packet size per connected master and slave (bytes)
system.iobus.pkt_size::total                    11176                       # Cumulative packet size per connected master and slave (bytes)
system.iobus.reqLayer2.occupancy              1600000                       # Layer occupancy (ticks)
system.iobus.reqLayer2.utilization                0.0                       # Layer utilization (%)
system.iobus.reqLayer8.occupancy                26496                       # Layer occupancy (ticks)
system.iobus.reqLayer8.utilization                0.0                       # Layer utilization (%)
system.iobus.reqLayer12.occupancy              113500                       # Layer occupancy (ticks)
system.iobus.reqLayer12.utilization               0.0                       # Layer utilization (%)
system.iobus.reqLayer17.occupancy             1482489                       # Layer occupancy (ticks)
system.iobus.reqLayer17.utilization               0.0                       # Layer utilization (%)
system.iobus.reqLayer18.occupancy             1510488                       # Layer occupancy (ticks)
system.iobus.reqLayer18.utilization               0.0                       # Layer utilization (%)
system.iobus.reqLayer19.occupancy             1662968                       # Layer occupancy (ticks)
system.iobus.reqLayer19.utilization               0.0                       # Layer utilization (%)
system.iobus.reqLayer20.occupancy             1494488                       # Layer occupancy (ticks)
system.iobus.reqLayer20.utilization               0.0                       # Layer utilization (%)
system.iobus.respLayer0.occupancy               78960                       # Layer occupancy (ticks)
system.iobus.respLayer0.utilization               0.0                       # Layer utilization (%)
system.iobus.respLayer2.occupancy             1224000                       # Layer occupancy (ticks)
system.iobus.respLayer2.utilization               0.0                       # Layer utilization (%)
system.iobus.respLayer4.occupancy             1291500                       # Layer occupancy (ticks)
system.iobus.respLayer4.utilization               0.0                       # Layer utilization (%)
system.iobus.respLayer6.occupancy             1219000                       # Layer occupancy (ticks)
system.iobus.respLayer6.utilization               0.0                       # Layer utilization (%)
system.iobus.respLayer8.occupancy             1366500                       # Layer occupancy (ticks)
system.iobus.respLayer8.utilization               0.0                       # Layer utilization (%)
system.pc.south_bridge.ide.disks.dma_read_full_pages          356                       # Number of full page size DMA reads (not PRD).
system.pc.south_bridge.ide.disks.dma_read_bytes      1458176                       # Number of bytes transfered via DMA reads (not PRD).
system.pc.south_bridge.ide.disks.dma_read_txs          356                       # Number of DMA read transactions (not PRD).
system.pc.south_bridge.ide.disks.dma_write_full_pages            0                       # Number of full page size DMA writes.
system.pc.south_bridge.ide.disks.dma_write_bytes            0                       # Number of bytes transfered via DMA writes.
system.pc.south_bridge.ide.disks.dma_write_txs            0                       # Number of DMA write transactions.
system.ruby.clk_domain.clock                      500                       # Clock period in ticks
system.ruby.delayHist::bucket_size                  4                       # delay histogram for all message
system.ruby.delayHist::max_bucket                  39                       # delay histogram for all message
system.ruby.delayHist::samples               12196967                       # delay histogram for all message
system.ruby.delayHist::mean                  0.607944                       # delay histogram for all message
system.ruby.delayHist::stdev                 2.117338                       # delay histogram for all message
system.ruby.delayHist                    |    11274596     92.44%     92.44% |        1544      0.01%     92.45% |      920335      7.55%    100.00% |         102      0.00%    100.00% |         371      0.00%    100.00% |          10      0.00%    100.00% |           7      0.00%    100.00% |           2      0.00%    100.00% |           0      0.00%    100.00% |           0      0.00%    100.00% # delay histogram for all message
system.ruby.delayHist::total                 12196967                       # delay histogram for all message
system.ruby.outstanding_req_hist_seqr::bucket_size            1                      
system.ruby.outstanding_req_hist_seqr::max_bucket            9                      
system.ruby.outstanding_req_hist_seqr::samples   2273961342                      
system.ruby.outstanding_req_hist_seqr::mean     1.001962                      
system.ruby.outstanding_req_hist_seqr::gmean     1.001361                      
system.ruby.outstanding_req_hist_seqr::stdev     0.044256                      
system.ruby.outstanding_req_hist_seqr    |           0      0.00%      0.00% |  2269498786     99.80%     99.80% |     4462556      0.20%    100.00% |           0      0.00%    100.00% |           0      0.00%    100.00% |           0      0.00%    100.00% |           0      0.00%    100.00% |           0      0.00%    100.00% |           0      0.00%    100.00% |           0      0.00%    100.00%
system.ruby.outstanding_req_hist_seqr::total   2273961342                      
system.ruby.latency_hist_seqr::bucket_size          256                      
system.ruby.latency_hist_seqr::max_bucket         2559                      
system.ruby.latency_hist_seqr::samples     2273961342                      
system.ruby.latency_hist_seqr::mean          1.085239                      
system.ruby.latency_hist_seqr::gmean         1.003684                      
system.ruby.latency_hist_seqr::stdev         4.011500                      
[...]
system.ruby.DMA_Controller.WriteRequest::total          128                      
system.ruby.DMA_Controller.Data          |       22997    100.00%    100.00% |           0      0.00%    100.00%
system.ruby.DMA_Controller.Data::total          22997                      
system.ruby.DMA_Controller.Ack           |         128    100.00%    100.00% |           0      0.00%    100.00%
system.ruby.DMA_Controller.Ack::total             128                      
system.ruby.DMA_Controller.READY.ReadRequest |       22997    100.00%    100.00% |           0      0.00%    100.00%
system.ruby.DMA_Controller.READY.ReadRequest::total        22997                      
system.ruby.DMA_Controller.READY.WriteRequest |         128    100.00%    100.00% |           0      0.00%    100.00%
system.ruby.DMA_Controller.READY.WriteRequest::total          128                      
system.ruby.DMA_Controller.BUSY_RD.Data  |       22997    100.00%    100.00% |           0      0.00%    100.00%
system.ruby.DMA_Controller.BUSY_RD.Data::total        22997                      
system.ruby.DMA_Controller.BUSY_WR.Ack   |         128    100.00%    100.00% |           0      0.00%    100.00%
system.ruby.DMA_Controller.BUSY_WR.Ack::total          128                      
system.ruby.L1Cache_Controller.Load      |      902042      0.24%      0.24% |     1091027      0.29%      0.53% |   354289757     93.54%     94.07% |    22456909      5.93%    100.00%
system.ruby.L1Cache_Controller.Load::total    378739735                      
system.ruby.L1Cache_Controller.Ifetch    |     4335645      0.22%      0.22% |     6118567      0.31%      0.53% |  1865141812     94.35%     94.88% |   101271282      5.12%    100.00%
system.ruby.L1Cache_Controller.Ifetch::total   1976867306                      
system.ruby.L1Cache_Controller.Store     |      683052      1.25%      1.25% |      879553      1.62%      2.87% |    40029644     73.51%     76.38% |    12864094     23.62%    100.00%
system.ruby.L1Cache_Controller.Store::total     54456343                      
system.ruby.L1Cache_Controller.Inv       |       24023     21.18%     21.18% |       35831     31.58%     52.76% |       19828     17.48%     70.24% |       33766     29.76%    100.00%
system.ruby.L1Cache_Controller.Inv::total       113448                      
system.ruby.L1Cache_Controller.L1_Replacement |       79911      3.42%      3.42% |      105185      4.50%      7.92% |     1766722     75.56%     83.48% |      386249     16.52%    100.00%
system.ruby.L1Cache_Controller.L1_Replacement::total      2338067                      
system.ruby.L1Cache_Controller.Fwd_GETX  |         716     11.85%     11.85% |        1790     29.62%     41.47% |        1091     18.05%     59.52% |        2446     40.48%    100.00%
system.ruby.L1Cache_Controller.Fwd_GETX::total         6043                      
system.ruby.L1Cache_Controller.Fwd_GETS  |        7024     30.20%     30.20% |        6959     29.92%     60.13% |        3644     15.67%     75.80% |        5629     24.20%    100.00%
system.ruby.L1Cache_Controller.Fwd_GETS::total        23256                      
system.ruby.L1Cache_Controller.Data      |         131      8.03%      8.03% |          97      5.95%     13.98% |         573     35.13%     49.11% |         830     50.89%    100.00%
system.ruby.L1Cache_Controller.Data::total         1631                      
system.ruby.L1Cache_Controller.Data_Exclusive |       13298      0.88%      0.88% |       41991      2.78%      3.66% |     1226987     81.23%     84.89% |      228255     15.11%    100.00%
system.ruby.L1Cache_Controller.Data_Exclusive::total      1510531                      
system.ruby.L1Cache_Controller.DataS_fromL1 |        7679     33.02%     33.02% |        4488     19.30%     52.32% |        3279     14.10%     66.42% |        7810     33.58%    100.00%
system.ruby.L1Cache_Controller.DataS_fromL1::total        23256                      
system.ruby.L1Cache_Controller.Data_all_Acks |       72320      8.49%      8.49% |       71984      8.45%     16.94% |      544823     63.97%     80.91% |      162560     19.09%    100.00%
system.ruby.L1Cache_Controller.Data_all_Acks::total       851687                      
system.ruby.L1Cache_Controller.Ack       |       13955     42.61%     42.61% |        4718     14.40%     57.01% |        7571     23.12%     80.13% |        6509     19.87%    100.00%
system.ruby.L1Cache_Controller.Ack::total        32753                      
system.ruby.L1Cache_Controller.Ack_all   |        6546     34.22%     34.22% |        3454     18.06%     52.28% |        4308     22.52%     74.80% |        4820     25.20%    100.00%
system.ruby.L1Cache_Controller.Ack_all::total        19128                      
system.ruby.L1Cache_Controller.WB_Ack    |       15963      0.78%      0.78% |       43767      2.14%      2.92% |     1700902     83.19%     86.11% |      283884     13.89%    100.00%
system.ruby.L1Cache_Controller.WB_Ack::total      2044516                      
system.ruby.L1Cache_Controller.NP.Load   |       22911      1.48%      1.48% |       50046      3.22%      4.70% |     1240850     79.91%     84.61% |      238948     15.39%    100.00%
system.ruby.L1Cache_Controller.NP.Load::total      1552755                      
system.ruby.L1Cache_Controller.NP.Ifetch |       49567     21.94%     21.94% |       42355     18.74%     40.68% |       49235     21.79%     62.47% |       84808     37.53%    100.00%
system.ruby.L1Cache_Controller.NP.Ifetch::total       225965                      
system.ruby.L1Cache_Controller.NP.Store  |        8986      1.60%      1.60% |       12784      2.28%      3.88% |      477483     85.00%     88.88% |       62493     11.12%    100.00%
system.ruby.L1Cache_Controller.NP.Store::total       561746                      
system.ruby.L1Cache_Controller.NP.Inv    |        4448     13.03%     13.03% |       11088     32.49%     45.52% |        6431     18.84%     64.36% |       12165     35.64%    100.00%
system.ruby.L1Cache_Controller.NP.Inv::total        34132                      
system.ruby.L1Cache_Controller.I.Load    |        4058     19.82%     19.82% |        6869     33.56%     53.38% |        2961     14.47%     67.85% |        6582     32.15%    100.00%
system.ruby.L1Cache_Controller.I.Load::total        20470                      
system.ruby.L1Cache_Controller.I.Ifetch  |        5684     28.59%     28.59% |        4538     22.83%     51.42% |        4721     23.75%     75.16% |        4938     24.84%    100.00%
system.ruby.L1Cache_Controller.I.Ifetch::total        19881                      
system.ruby.L1Cache_Controller.I.Store   |        2221     35.34%     35.34% |        1968     31.31%     66.65% |         412      6.56%     73.21% |        1684     26.79%    100.00%
system.ruby.L1Cache_Controller.I.Store::total         6285                      
system.ruby.L1Cache_Controller.I.L1_Replacement |        8591     22.87%     22.87% |       13084     34.83%     57.71% |        5830     15.52%     73.23% |       10055     26.77%    100.00%
system.ruby.L1Cache_Controller.I.L1_Replacement::total        37560                      
system.ruby.L1Cache_Controller.S.Load    |      152388     14.97%     14.97% |      197225     19.38%     34.35% |      438063     43.04%     77.38% |      230236     22.62%    100.00%
system.ruby.L1Cache_Controller.S.Load::total      1017912                      
system.ruby.L1Cache_Controller.S.Ifetch  |     4280394      0.22%      0.22% |     6071674      0.31%      0.52% |  1865087854     94.36%     94.88% |   101181536      5.12%    100.00%
system.ruby.L1Cache_Controller.S.Ifetch::total   1976621458                      
system.ruby.L1Cache_Controller.S.Store   |        6416     36.66%     36.66% |        3357     19.18%     55.85% |        3735     21.34%     77.19% |        3992     22.81%    100.00%
system.ruby.L1Cache_Controller.S.Store::total        17500                      
system.ruby.L1Cache_Controller.S.Inv     |       14058     24.22%     24.22% |       16921     29.16%     53.38% |       10840     18.68%     72.06% |       16212     27.94%    100.00%
system.ruby.L1Cache_Controller.S.Inv::total        58031                      
system.ruby.L1Cache_Controller.S.L1_Replacement |       55357     21.62%     21.62% |       48334     18.88%     40.51% |       59990     23.43%     63.94% |       92310     36.06%    100.00%
system.ruby.L1Cache_Controller.S.L1_Replacement::total       255991                      
system.ruby.L1Cache_Controller.E.Load    |      126708      0.04%      0.04% |      149939      0.05%      0.09% |   294177972     97.99%     98.08% |     5768864      1.92%    100.00%
system.ruby.L1Cache_Controller.E.Load::total    300223483                      
system.ruby.L1Cache_Controller.E.Store   |        3087      0.62%      0.62% |       24280      4.87%      5.49% |      360755     72.42%     77.91% |      110026     22.09%    100.00%
system.ruby.L1Cache_Controller.E.Store::total       498148                      
system.ruby.L1Cache_Controller.E.Inv     |        1863     22.08%     22.08% |        3026     35.86%     57.94% |        1528     18.11%     76.05% |        2021     23.95%    100.00%
system.ruby.L1Cache_Controller.E.Inv::total         8438                      
system.ruby.L1Cache_Controller.E.L1_Replacement |        5936      0.60%      0.60% |       10703      1.08%      1.68% |      863399     86.93%     88.60% |      113195     11.40%    100.00%
system.ruby.L1Cache_Controller.E.L1_Replacement::total       993233                      
system.ruby.L1Cache_Controller.E.Fwd_GETX |         129      4.57%      4.57% |         667     23.65%     28.23% |         624     22.13%     50.35% |        1400     49.65%    100.00%
system.ruby.L1Cache_Controller.E.Fwd_GETX::total         2820                      
system.ruby.L1Cache_Controller.E.Fwd_GETS |        1372     18.19%     18.19% |        3247     43.05%     61.24% |         719      9.53%     70.77% |        2205     29.23%    100.00%
system.ruby.L1Cache_Controller.E.Fwd_GETS::total         7543                      
system.ruby.L1Cache_Controller.M.Load    |      595977      0.78%      0.78% |      686948      0.90%      1.69% |    58429911     76.96%     78.65% |    16212279     21.35%    100.00%
system.ruby.L1Cache_Controller.M.Load::total     75925115                      
system.ruby.L1Cache_Controller.M.Store   |      662342      1.24%      1.24% |      837164      1.57%      2.81% |    39187259     73.42%     76.23% |    12685899     23.77%    100.00%
system.ruby.L1Cache_Controller.M.Store::total     53372664                      
system.ruby.L1Cache_Controller.M.Inv     |        3653     28.44%     28.44% |        4796     37.34%     65.78% |        1029      8.01%     73.79% |        3366     26.21%    100.00%
system.ruby.L1Cache_Controller.M.Inv::total        12844                      
system.ruby.L1Cache_Controller.M.L1_Replacement |       10027      0.95%      0.95% |       33064      3.15%      4.10% |      837503     79.66%     83.76% |      170689     16.24%    100.00%
system.ruby.L1Cache_Controller.M.L1_Replacement::total      1051283                      
system.ruby.L1Cache_Controller.M.Fwd_GETX |         587     18.21%     18.21% |        1123     34.84%     53.06% |         467     14.49%     67.55% |        1046     32.45%    100.00%
system.ruby.L1Cache_Controller.M.Fwd_GETX::total         3223                      
system.ruby.L1Cache_Controller.M.Fwd_GETS |        5652     35.97%     35.97% |        3712     23.62%     59.59% |        2925     18.62%     78.21% |        3424     21.79%    100.00%
system.ruby.L1Cache_Controller.M.Fwd_GETS::total        15713                      
system.ruby.L1Cache_Controller.IS.Data_Exclusive |       13298      0.88%      0.88% |       41991      2.78%      3.66% |     1226987     81.23%     84.89% |      228255     15.11%    100.00%
system.ruby.L1Cache_Controller.IS.Data_Exclusive::total      1510531                      
system.ruby.L1Cache_Controller.IS.DataS_fromL1 |        7679     33.02%     33.02% |        4488     19.30%     52.32% |        3279     14.10%     66.42% |        7810     33.58%    100.00%
system.ruby.L1Cache_Controller.IS.DataS_fromL1::total        23256                      
system.ruby.L1Cache_Controller.IS.Data_all_Acks |       61243     21.47%     21.47% |       57329     20.10%     41.56% |       67501     23.66%     65.22% |       99211     34.78%    100.00%
system.ruby.L1Cache_Controller.IS.Data_all_Acks::total       285284                      
system.ruby.L1Cache_Controller.IM.Data   |         131      8.03%      8.03% |          97      5.95%     13.98% |         573     35.13%     49.11% |         830     50.89%    100.00%
system.ruby.L1Cache_Controller.IM.Data::total         1631                      
system.ruby.L1Cache_Controller.IM.Data_all_Acks |       11077      1.96%      1.96% |       14655      2.59%      4.54% |      477322     84.27%     88.82% |       63349     11.18%    100.00%
system.ruby.L1Cache_Controller.IM.Data_all_Acks::total       566403                      
system.ruby.L1Cache_Controller.SM.Inv    |           1     33.33%     33.33% |           0      0.00%     33.33% |           0      0.00%     33.33% |           2     66.67%    100.00%
system.ruby.L1Cache_Controller.SM.Inv::total            3                      
system.ruby.L1Cache_Controller.SM.Ack    |       13955     42.61%     42.61% |        4718     14.40%     57.01% |        7571     23.12%     80.13% |        6509     19.87%    100.00%
system.ruby.L1Cache_Controller.SM.Ack::total        32753                      
system.ruby.L1Cache_Controller.SM.Ack_all |        6546     34.22%     34.22% |        3454     18.06%     52.28% |        4308     22.52%     74.80% |        4820     25.20%    100.00%
system.ruby.L1Cache_Controller.SM.Ack_all::total        19128                      
system.ruby.L1Cache_Controller.M_I.Ifetch |           0      0.00%      0.00% |           0      0.00%      0.00% |           2    100.00%    100.00% |           0      0.00%    100.00%
system.ruby.L1Cache_Controller.M_I.Ifetch::total            2                      
system.ruby.L1Cache_Controller.M_I.WB_Ack |       15963      0.78%      0.78% |       43767      2.14%      2.92% |     1700902     83.19%     86.11% |      283884     13.89%    100.00%
system.ruby.L1Cache_Controller.M_I.WB_Ack::total      2044516                      
system.ruby.L2Cache_Controller.L1_GET_INSTR       245847      0.00%      0.00%
system.ruby.L2Cache_Controller.L1_GETS        1573278      0.00%      0.00%
system.ruby.L2Cache_Controller.L1_GETX         568036      0.00%      0.00%
system.ruby.L2Cache_Controller.L1_UPGRADE        17500      0.00%      0.00%
system.ruby.L2Cache_Controller.L1_PUTX        2044516      0.00%      0.00%
system.ruby.L2Cache_Controller.L2_Replacement       829048      0.00%      0.00%
system.ruby.L2Cache_Controller.L2_Replacement_clean       642682      0.00%      0.00%
system.ruby.L2Cache_Controller.Mem_Data       1474420      0.00%      0.00%
system.ruby.L2Cache_Controller.Mem_Ack        1471976      0.00%      0.00%
system.ruby.L2Cache_Controller.WB_Data          28557      0.00%      0.00%
system.ruby.L2Cache_Controller.WB_Data_clean         7543      0.00%      0.00%
system.ruby.L2Cache_Controller.Ack              29559      0.00%      0.00%
system.ruby.L2Cache_Controller.Ack_all          36661      0.00%      0.00%
system.ruby.L2Cache_Controller.Unblock          23256      0.00%      0.00%
system.ruby.L2Cache_Controller.Exclusive_Unblock      2096062      0.00%      0.00%
system.ruby.L2Cache_Controller.MEM_Inv            492      0.00%      0.00%
system.ruby.L2Cache_Controller.NP.L1_GET_INSTR        26682      0.00%      0.00%
system.ruby.L2Cache_Controller.NP.L1_GETS       938129      0.00%      0.00%
system.ruby.L2Cache_Controller.NP.L1_GETX       509609      0.00%      0.00%
system.ruby.L2Cache_Controller.SS.L1_GET_INSTR       219145      0.00%      0.00%
system.ruby.L2Cache_Controller.SS.L1_GETS        39392      0.00%      0.00%
system.ruby.L2Cache_Controller.SS.L1_GETX         1631      0.00%      0.00%
system.ruby.L2Cache_Controller.SS.L1_UPGRADE        17497      0.00%      0.00%
system.ruby.L2Cache_Controller.SS.L2_Replacement         1273      0.00%      0.00%
system.ruby.L2Cache_Controller.SS.L2_Replacement_clean        26950      0.00%      0.00%
system.ruby.L2Cache_Controller.M.L1_GET_INSTR           19      0.00%      0.00%
system.ruby.L2Cache_Controller.M.L1_GETS       572425      0.00%      0.00%
system.ruby.L2Cache_Controller.M.L1_GETX        50751      0.00%      0.00%
system.ruby.L2Cache_Controller.M.L2_Replacement       824433      0.00%      0.00%
system.ruby.L2Cache_Controller.M.L2_Replacement_clean       597927      0.00%      0.00%
system.ruby.L2Cache_Controller.M.MEM_Inv          111      0.00%      0.00%
system.ruby.L2Cache_Controller.MT.L1_GETS        23256      0.00%      0.00%
system.ruby.L2Cache_Controller.MT.L1_GETX         6043      0.00%      0.00%
system.ruby.L2Cache_Controller.MT.L1_PUTX      2044516      0.00%      0.00%
system.ruby.L2Cache_Controller.MT.L2_Replacement         3342      0.00%      0.00%
system.ruby.L2Cache_Controller.MT.L2_Replacement_clean        17805      0.00%      0.00%
system.ruby.L2Cache_Controller.MT.MEM_Inv          135      0.00%      0.00%
system.ruby.L2Cache_Controller.M_I.L1_GET_INSTR            1      0.00%      0.00%
system.ruby.L2Cache_Controller.M_I.L1_GETS            3      0.00%      0.00%
system.ruby.L2Cache_Controller.M_I.Mem_Ack      1471976      0.00%      0.00%
system.ruby.L2Cache_Controller.M_I.MEM_Inv          111      0.00%      0.00%
system.ruby.L2Cache_Controller.MT_I.WB_Data         2669      0.00%      0.00%
system.ruby.L2Cache_Controller.MT_I.Ack_all          808      0.00%      0.00%
system.ruby.L2Cache_Controller.MT_I.MEM_Inv          135      0.00%      0.00%
system.ruby.L2Cache_Controller.MCT_I.WB_Data        10175      0.00%      0.00%
system.ruby.L2Cache_Controller.MCT_I.Ack_all         7630      0.00%      0.00%
system.ruby.L2Cache_Controller.I_I.Ack          28081      0.00%      0.00%
system.ruby.L2Cache_Controller.I_I.Ack_all        26950      0.00%      0.00%
system.ruby.L2Cache_Controller.S_I.Ack           1478      0.00%      0.00%
system.ruby.L2Cache_Controller.S_I.Ack_all         1273      0.00%      0.00%
system.ruby.L2Cache_Controller.ISS.L1_GETS           23      0.00%      0.00%
system.ruby.L2Cache_Controller.ISS.Mem_Data       938106      0.00%      0.00%
system.ruby.L2Cache_Controller.IS.Mem_Data        26705      0.00%      0.00%
system.ruby.L2Cache_Controller.IM.Mem_Data       509609      0.00%      0.00%
system.ruby.L2Cache_Controller.SS_MB.L1_GETS           35      0.00%      0.00%
system.ruby.L2Cache_Controller.SS_MB.L1_GETX            1      0.00%      0.00%
system.ruby.L2Cache_Controller.SS_MB.L1_UPGRADE            3      0.00%      0.00%
system.ruby.L2Cache_Controller.SS_MB.Exclusive_Unblock        19128      0.00%      0.00%
system.ruby.L2Cache_Controller.MT_MB.L1_GETS           12      0.00%      0.00%
system.ruby.L2Cache_Controller.MT_MB.L1_GETX            1      0.00%      0.00%
system.ruby.L2Cache_Controller.MT_MB.Exclusive_Unblock      2076934      0.00%      0.00%
system.ruby.L2Cache_Controller.MT_IIB.L1_GETS            3      0.00%      0.00%
system.ruby.L2Cache_Controller.MT_IIB.WB_Data        15695      0.00%      0.00%
system.ruby.L2Cache_Controller.MT_IIB.WB_Data_clean         7527      0.00%      0.00%
system.ruby.L2Cache_Controller.MT_IIB.Unblock           34      0.00%      0.00%
system.ruby.L2Cache_Controller.MT_IB.WB_Data           18      0.00%      0.00%
system.ruby.L2Cache_Controller.MT_IB.WB_Data_clean           16      0.00%      0.00%
system.ruby.L2Cache_Controller.MT_SB.Unblock        23222      0.00%      0.00%

---------- End Simulation Statistics   ----------
