
---------- Begin Simulation Statistics ----------
sim_seconds                                  2.337264                       # Number of seconds simulated
sim_ticks                                2337264279500                       # Number of ticks simulated
final_tick                               55162842198001                       # Number of ticks from beginning of simulation (restored from checkpoints and never reset)
sim_freq                                 1000000000000                       # Frequency of simulated ticks
host_inst_rate                                 142973                       # Simulator instruction rate (inst/s)
host_op_rate                                   259159                       # Simulator op (including micro ops) rate (op/s)
host_tick_rate                              254541200                       # Simulator tick rate (ticks/s)
host_mem_usage                                1863496                       # Number of bytes of host memory used
host_seconds                                  9182.26                       # Real time elapsed on the host
sim_insts                                  1312811836                       # Number of instructions simulated
sim_ops                                    2379666664                       # Number of ops (including micro ops) simulated
system.voltage_domain.voltage                       1                       # Voltage in Volts
system.clk_domain.clock                          1000                       # Clock period in ticks
system.mem_ctrls.bytes_read::ruby.dir_cntrl0     61289920                       # Number of bytes read from this memory
system.mem_ctrls.bytes_read::total           61289920                       # Number of bytes read from this memory
system.mem_ctrls.bytes_written::ruby.dir_cntrl0     38597888                       # Number of bytes written to this memory
system.mem_ctrls.bytes_written::total        38597888                       # Number of bytes written to this memory
system.mem_ctrls.num_reads::ruby.dir_cntrl0       957655                       # Number of read requests responded to by this memory
system.mem_ctrls.num_reads::total              957655                       # Number of read requests responded to by this memory
system.mem_ctrls.num_writes::ruby.dir_cntrl0       603092                       # Number of write requests responded to by this memory
system.mem_ctrls.num_writes::total             603092                       # Number of write requests responded to by this memory
system.mem_ctrls.bw_read::ruby.dir_cntrl0     26222931                       # Total read bandwidth from this memory (bytes/s)
system.mem_ctrls.bw_read::total              26222931                       # Total read bandwidth from this memory (bytes/s)
system.mem_ctrls.bw_write::ruby.dir_cntrl0     16514131                       # Write bandwidth from this memory (bytes/s)
system.mem_ctrls.bw_write::total             16514131                       # Write bandwidth from this memory (bytes/s)
system.mem_ctrls.bw_total::ruby.dir_cntrl0     42737062                       # Total bandwidth to/from this memory (bytes/s)
system.mem_ctrls.bw_total::total             42737062                       # Total bandwidth to/from this memory (bytes/s)
system.mem_ctrls.readReqs                      957655                       # Number of read requests accepted
system.mem_ctrls.writeReqs                     603092                       # Number of write requests accepted
system.mem_ctrls.readBursts                    957655                       # Number of DRAM read bursts, including those serviced by the write queue
system.mem_ctrls.writeBursts                   603092                       # Number of DRAM write bursts, including those merged in the write queue
system.mem_ctrls.bytesReadDRAM               61251904                       # Total number of bytes read from DRAM
system.mem_ctrls.bytesReadWrQ                   38016                       # Total number of bytes read from write queue
system.mem_ctrls.bytesWritten                38595776                       # Total number of bytes written to DRAM
system.mem_ctrls.bytesReadSys                61289920                       # Total read bytes from the system interface side
system.mem_ctrls.bytesWrittenSys             38597888                       # Total written bytes from the system interface side
system.mem_ctrls.servicedByWrQ                    594                       # Number of DRAM read bursts serviced by the write queue
system.mem_ctrls.mergedWrBursts                    22                       # Number of DRAM write bursts merged with an existing one
system.mem_ctrls.neitherReadNorWriteReqs            0                       # Number of requests that are neither read nor write
system.mem_ctrls.perBankRdBursts::0             59258                       # Per bank write bursts
system.mem_ctrls.perBankRdBursts::1             62793                       # Per bank write bursts
system.mem_ctrls.perBankRdBursts::2             58993                       # Per bank write bursts
system.mem_ctrls.perBankRdBursts::3             57749                       # Per bank write bursts
system.mem_ctrls.perBankRdBursts::4             60408                       # Per bank write bursts
system.mem_ctrls.perBankRdBursts::5             59796                       # Per bank write bursts
system.mem_ctrls.perBankRdBursts::6             60570                       # Per bank write bursts
system.mem_ctrls.perBankRdBursts::7             58471                       # Per bank write bursts
system.mem_ctrls.perBankRdBursts::8             60685                       # Per bank write bursts
system.mem_ctrls.perBankRdBursts::9             60072                       # Per bank write bursts
system.mem_ctrls.perBankRdBursts::10            57345                       # Per bank write bursts
system.mem_ctrls.perBankRdBursts::11            59890                       # Per bank write bursts
system.mem_ctrls.perBankRdBursts::12            60150                       # Per bank write bursts
system.mem_ctrls.perBankRdBursts::13            59104                       # Per bank write bursts
system.mem_ctrls.perBankRdBursts::14            61095                       # Per bank write bursts
system.mem_ctrls.perBankRdBursts::15            60682                       # Per bank write bursts
system.mem_ctrls.perBankWrBursts::0             37516                       # Per bank write bursts
system.mem_ctrls.perBankWrBursts::1             39827                       # Per bank write bursts
system.mem_ctrls.perBankWrBursts::2             37255                       # Per bank write bursts
system.mem_ctrls.perBankWrBursts::3             36793                       # Per bank write bursts
system.mem_ctrls.perBankWrBursts::4             37700                       # Per bank write bursts
system.mem_ctrls.perBankWrBursts::5             37580                       # Per bank write bursts
system.mem_ctrls.perBankWrBursts::6             38100                       # Per bank write bursts
system.mem_ctrls.perBankWrBursts::7             36999                       # Per bank write bursts
system.mem_ctrls.perBankWrBursts::8             38182                       # Per bank write bursts
system.mem_ctrls.perBankWrBursts::9             37891                       # Per bank write bursts
system.mem_ctrls.perBankWrBursts::10            36325                       # Per bank write bursts
system.mem_ctrls.perBankWrBursts::11            37871                       # Per bank write bursts
system.mem_ctrls.perBankWrBursts::12            37692                       # Per bank write bursts
system.mem_ctrls.perBankWrBursts::13            37140                       # Per bank write bursts
system.mem_ctrls.perBankWrBursts::14            38360                       # Per bank write bursts
system.mem_ctrls.perBankWrBursts::15            37828                       # Per bank write bursts
system.mem_ctrls.numRdRetry                         0                       # Number of times read queue was full causing retry
system.mem_ctrls.numWrRetry                         0                       # Number of times write queue was full causing retry
system.mem_ctrls.totGap                  2337264206500                       # Total gap between requests
system.mem_ctrls.readPktSize::0                     0                       # Read request sizes (log2)
system.mem_ctrls.readPktSize::1                     0                       # Read request sizes (log2)
system.mem_ctrls.readPktSize::2                     0                       # Read request sizes (log2)
system.mem_ctrls.readPktSize::3                     0                       # Read request sizes (log2)
system.mem_ctrls.readPktSize::4                     0                       # Read request sizes (log2)
system.mem_ctrls.readPktSize::5                     0                       # Read request sizes (log2)
system.mem_ctrls.readPktSize::6                957655                       # Read request sizes (log2)
system.mem_ctrls.writePktSize::0                    0                       # Write request sizes (log2)
system.mem_ctrls.writePktSize::1                    0                       # Write request sizes (log2)
system.mem_ctrls.writePktSize::2                    0                       # Write request sizes (log2)
system.mem_ctrls.writePktSize::3                    0                       # Write request sizes (log2)
system.mem_ctrls.writePktSize::4                    0                       # Write request sizes (log2)
system.mem_ctrls.writePktSize::5                    0                       # Write request sizes (log2)
system.mem_ctrls.writePktSize::6               603092                       # Write request sizes (log2)
system.mem_ctrls.rdQLenPdf::0                  953997                       # What read queue length does an incoming req see
system.mem_ctrls.rdQLenPdf::1                    3038                       # What read queue length does an incoming req see
system.mem_ctrls.rdQLenPdf::2                      23                       # What read queue length does an incoming req see
system.mem_ctrls.rdQLenPdf::3                       3                       # What read queue length does an incoming req see
system.mem_ctrls.rdQLenPdf::4                       0                       # What read queue length does an incoming req see
system.mem_ctrls.rdQLenPdf::5                       0                       # What read queue length does an incoming req see
system.mem_ctrls.rdQLenPdf::6                       0                       # What read queue length does an incoming req see
system.mem_ctrls.rdQLenPdf::7                       0                       # What read queue length does an incoming req see
system.mem_ctrls.rdQLenPdf::8                       0                       # What read queue length does an incoming req see
system.mem_ctrls.rdQLenPdf::9                       0                       # What read queue length does an incoming req see
system.mem_ctrls.rdQLenPdf::10                      0                       # What read queue length does an incoming req see
system.mem_ctrls.rdQLenPdf::11                      0                       # What read queue length does an incoming req see
system.mem_ctrls.rdQLenPdf::12                      0                       # What read queue length does an incoming req see
system.mem_ctrls.rdQLenPdf::13                      0                       # What read queue length does an incoming req see
system.mem_ctrls.rdQLenPdf::14                      0                       # What read queue length does an incoming req see
system.mem_ctrls.rdQLenPdf::15                      0                       # What read queue length does an incoming req see
system.mem_ctrls.rdQLenPdf::16                      0                       # What read queue length does an incoming req see
system.mem_ctrls.rdQLenPdf::17                      0                       # What read queue length does an incoming req see
system.mem_ctrls.rdQLenPdf::18                      0                       # What read queue length does an incoming req see
system.mem_ctrls.rdQLenPdf::19                      0                       # What read queue length does an incoming req see
system.mem_ctrls.rdQLenPdf::20                      0                       # What read queue length does an incoming req see
system.mem_ctrls.rdQLenPdf::21                      0                       # What read queue length does an incoming req see
system.mem_ctrls.rdQLenPdf::22                      0                       # What read queue length does an incoming req see
system.mem_ctrls.rdQLenPdf::23                      0                       # What read queue length does an incoming req see
system.mem_ctrls.rdQLenPdf::24                      0                       # What read queue length does an incoming req see
system.mem_ctrls.rdQLenPdf::25                      0                       # What read queue length does an incoming req see
system.mem_ctrls.rdQLenPdf::26                      0                       # What read queue length does an incoming req see
system.mem_ctrls.rdQLenPdf::27                      0                       # What read queue length does an incoming req see
system.mem_ctrls.rdQLenPdf::28                      0                       # What read queue length does an incoming req see
system.mem_ctrls.rdQLenPdf::29                      0                       # What read queue length does an incoming req see
system.mem_ctrls.rdQLenPdf::30                      0                       # What read queue length does an incoming req see
system.mem_ctrls.rdQLenPdf::31                      0                       # What read queue length does an incoming req see
system.mem_ctrls.wrQLenPdf::0                       0                       # What write queue length does an incoming req see
system.mem_ctrls.wrQLenPdf::1                       0                       # What write queue length does an incoming req see
system.mem_ctrls.wrQLenPdf::2                       0                       # What write queue length does an incoming req see
system.mem_ctrls.wrQLenPdf::3                       0                       # What write queue length does an incoming req see
system.mem_ctrls.wrQLenPdf::4                       0                       # What write queue length does an incoming req see
system.mem_ctrls.wrQLenPdf::5                       0                       # What write queue length does an incoming req see
system.mem_ctrls.wrQLenPdf::6                       0                       # What write queue length does an incoming req see
system.mem_ctrls.wrQLenPdf::7                       0                       # What write queue length does an incoming req see
system.mem_ctrls.wrQLenPdf::8                       0                       # What write queue length does an incoming req see
system.mem_ctrls.wrQLenPdf::9                       0                       # What write queue length does an incoming req see
system.mem_ctrls.wrQLenPdf::10                      0                       # What write queue length does an incoming req see
system.mem_ctrls.wrQLenPdf::11                      0                       # What write queue length does an incoming req see
system.mem_ctrls.wrQLenPdf::12                      0                       # What write queue length does an incoming req see
system.mem_ctrls.wrQLenPdf::13                      0                       # What write queue length does an incoming req see
system.mem_ctrls.wrQLenPdf::14                      0                       # What write queue length does an incoming req see
system.mem_ctrls.wrQLenPdf::15                    657                       # What write queue length does an incoming req see
system.mem_ctrls.wrQLenPdf::16                    723                       # What write queue length does an incoming req see
system.mem_ctrls.wrQLenPdf::17                  37234                       # What write queue length does an incoming req see
system.mem_ctrls.wrQLenPdf::18                  37638                       # What write queue length does an incoming req see
system.mem_ctrls.wrQLenPdf::19                  37645                       # What write queue length does an incoming req see
system.mem_ctrls.wrQLenPdf::20                  37641                       # What write queue length does an incoming req see
system.mem_ctrls.wrQLenPdf::21                  37639                       # What write queue length does an incoming req see
system.mem_ctrls.wrQLenPdf::22                  37649                       # What write queue length does an incoming req see
system.mem_ctrls.wrQLenPdf::23                  37641                       # What write queue length does an incoming req see
system.mem_ctrls.wrQLenPdf::24                  37633                       # What write queue length does an incoming req see
system.mem_ctrls.wrQLenPdf::25                  37634                       # What write queue length does an incoming req see
system.mem_ctrls.wrQLenPdf::26                  37645                       # What write queue length does an incoming req see
system.mem_ctrls.wrQLenPdf::27                  37630                       # What write queue length does an incoming req see
system.mem_ctrls.wrQLenPdf::28                  37624                       # What write queue length does an incoming req see
system.mem_ctrls.wrQLenPdf::29                  37616                       # What write queue length does an incoming req see
system.mem_ctrls.wrQLenPdf::30                  37613                       # What write queue length does an incoming req see
system.mem_ctrls.wrQLenPdf::31                  37604                       # What write queue length does an incoming req see
system.mem_ctrls.wrQLenPdf::32                  37602                       # What write queue length does an incoming req see
system.mem_ctrls.wrQLenPdf::33                      2                       # What write queue length does an incoming req see
system.mem_ctrls.wrQLenPdf::34                      0                       # What write queue length does an incoming req see
system.mem_ctrls.wrQLenPdf::35                      0                       # What write queue length does an incoming req see
system.mem_ctrls.wrQLenPdf::36                      0                       # What write queue length does an incoming req see
system.mem_ctrls.wrQLenPdf::37                      0                       # What write queue length does an incoming req see
system.mem_ctrls.wrQLenPdf::38                      0                       # What write queue length does an incoming req see
system.mem_ctrls.wrQLenPdf::39                      0                       # What write queue length does an incoming req see
system.mem_ctrls.wrQLenPdf::40                      0                       # What write queue length does an incoming req see
system.mem_ctrls.wrQLenPdf::41                      0                       # What write queue length does an incoming req see
system.mem_ctrls.wrQLenPdf::42                      0                       # What write queue length does an incoming req see
system.mem_ctrls.wrQLenPdf::43                      0                       # What write queue length does an incoming req see
system.mem_ctrls.wrQLenPdf::44                      0                       # What write queue length does an incoming req see
system.mem_ctrls.wrQLenPdf::45                      0                       # What write queue length does an incoming req see
system.mem_ctrls.wrQLenPdf::46                      0                       # What write queue length does an incoming req see
system.mem_ctrls.wrQLenPdf::47                      0                       # What write queue length does an incoming req see
system.mem_ctrls.wrQLenPdf::48                      0                       # What write queue length does an incoming req see
system.mem_ctrls.wrQLenPdf::49                      0                       # What write queue length does an incoming req see
system.mem_ctrls.wrQLenPdf::50                      0                       # What write queue length does an incoming req see
system.mem_ctrls.wrQLenPdf::51                      0                       # What write queue length does an incoming req see
system.mem_ctrls.wrQLenPdf::52                      0                       # What write queue length does an incoming req see
system.mem_ctrls.wrQLenPdf::53                      0                       # What write queue length does an incoming req see
system.mem_ctrls.wrQLenPdf::54                      0                       # What write queue length does an incoming req see
system.mem_ctrls.wrQLenPdf::55                      0                       # What write queue length does an incoming req see
system.mem_ctrls.wrQLenPdf::56                      0                       # What write queue length does an incoming req see
system.mem_ctrls.wrQLenPdf::57                      0                       # What write queue length does an incoming req see
system.mem_ctrls.wrQLenPdf::58                      0                       # What write queue length does an incoming req see
system.mem_ctrls.wrQLenPdf::59                      0                       # What write queue length does an incoming req see
system.mem_ctrls.wrQLenPdf::60                      0                       # What write queue length does an incoming req see
system.mem_ctrls.wrQLenPdf::61                      0                       # What write queue length does an incoming req see
system.mem_ctrls.wrQLenPdf::62                      0                       # What write queue length does an incoming req see
system.mem_ctrls.wrQLenPdf::63                      0                       # What write queue length does an incoming req see
system.mem_ctrls.bytesPerActivate::samples       606113                       # Bytes accessed per row activation
system.mem_ctrls.bytesPerActivate::mean    164.734853                       # Bytes accessed per row activation
system.mem_ctrls.bytesPerActivate::gmean   117.818156                       # Bytes accessed per row activation
system.mem_ctrls.bytesPerActivate::stdev   179.700796                       # Bytes accessed per row activation
system.mem_ctrls.bytesPerActivate::0-127       305626     50.42%     50.42% # Bytes accessed per row activation
system.mem_ctrls.bytesPerActivate::128-255       170218     28.08%     78.51% # Bytes accessed per row activation
system.mem_ctrls.bytesPerActivate::256-383        85907     14.17%     92.68% # Bytes accessed per row activation
system.mem_ctrls.bytesPerActivate::384-511        12713      2.10%     94.78% # Bytes accessed per row activation
system.mem_ctrls.bytesPerActivate::512-639         7624      1.26%     96.04% # Bytes accessed per row activation
system.mem_ctrls.bytesPerActivate::640-767         5607      0.93%     96.96% # Bytes accessed per row activation
system.mem_ctrls.bytesPerActivate::768-895         4190      0.69%     97.65% # Bytes accessed per row activation
system.mem_ctrls.bytesPerActivate::896-1023         3251      0.54%     98.19% # Bytes accessed per row activation
system.mem_ctrls.bytesPerActivate::1024-1151        10977      1.81%    100.00% # Bytes accessed per row activation
system.mem_ctrls.bytesPerActivate::total       606113                       # Bytes accessed per row activation
system.mem_ctrls.rdPerTurnAround::samples        37601                       # Reads before turning the bus around for writes
system.mem_ctrls.rdPerTurnAround::mean      26.440547                       # Reads before turning the bus around for writes
system.mem_ctrls.rdPerTurnAround::stdev    201.030891                       # Reads before turning the bus around for writes
system.mem_ctrls.rdPerTurnAround::0-2047        37599     99.99%     99.99% # Reads before turning the bus around for writes
system.mem_ctrls.rdPerTurnAround::8192-10239            1      0.00%    100.00% # Reads before turning the bus around for writes
system.mem_ctrls.rdPerTurnAround::36864-38911            1      0.00%    100.00% # Reads before turning the bus around for writes
system.mem_ctrls.rdPerTurnAround::total         37601                       # Reads before turning the bus around for writes
system.mem_ctrls.wrPerTurnAround::samples        37601                       # Writes before turning the bus around for reads
system.mem_ctrls.wrPerTurnAround::mean      16.038377                       # Writes before turning the bus around for reads
system.mem_ctrls.wrPerTurnAround::gmean     16.036080                       # Writes before turning the bus around for reads
system.mem_ctrls.wrPerTurnAround::stdev      0.284326                       # Writes before turning the bus around for reads
system.mem_ctrls.wrPerTurnAround::16            36880     98.08%     98.08% # Writes before turning the bus around for reads
system.mem_ctrls.wrPerTurnAround::17               39      0.10%     98.19% # Writes before turning the bus around for reads
system.mem_ctrls.wrPerTurnAround::18              668      1.78%     99.96% # Writes before turning the bus around for reads
system.mem_ctrls.wrPerTurnAround::19                6      0.02%     99.98% # Writes before turning the bus around for reads
system.mem_ctrls.wrPerTurnAround::20                1      0.00%     99.98% # Writes before turning the bus around for reads
system.mem_ctrls.wrPerTurnAround::21                2      0.01%     99.99% # Writes before turning the bus around for reads
system.mem_ctrls.wrPerTurnAround::22                1      0.00%     99.99% # Writes before turning the bus around for reads
system.mem_ctrls.wrPerTurnAround::23                3      0.01%    100.00% # Writes before turning the bus around for reads
system.mem_ctrls.wrPerTurnAround::25                1      0.00%    100.00% # Writes before turning the bus around for reads
system.mem_ctrls.wrPerTurnAround::total         37601                       # Writes before turning the bus around for reads
system.mem_ctrls.totQLat                  13191961184                       # Total ticks spent queuing
system.mem_ctrls.totMemAccLat             31136854934                       # Total ticks spent from burst creation until serviced by the DRAM
system.mem_ctrls.totBusLat                 4785305000                       # Total ticks spent in databus transfers
system.mem_ctrls.avgQLat                     13783.82                       # Average queueing delay per DRAM burst
system.mem_ctrls.avgBusLat                    5000.00                       # Average bus latency per DRAM burst
system.mem_ctrls.avgMemAccLat                32533.82                       # Average memory access latency per DRAM burst
system.mem_ctrls.avgRdBW                        26.21                       # Average DRAM read bandwidth in MiByte/s
system.mem_ctrls.avgWrBW                        16.51                       # Average achieved write bandwidth in MiByte/s
system.mem_ctrls.avgRdBWSys                     26.22                       # Average system read bandwidth in MiByte/s
system.mem_ctrls.avgWrBWSys                     16.51                       # Average system write bandwidth in MiByte/s
system.mem_ctrls.peakBW                      12800.00                       # Theoretical peak bandwidth in MiByte/s
system.mem_ctrls.busUtil                         0.33                       # Data bus utilization in percentage
system.mem_ctrls.busUtilRead                     0.20                       # Data bus utilization in percentage for reads
system.mem_ctrls.busUtilWrite                    0.13                       # Data bus utilization in percentage for writes
system.mem_ctrls.avgRdQLen                       1.00                       # Average read queue length when enqueuing
system.mem_ctrls.avgWrQLen                      25.49                       # Average write queue length when enqueuing
system.mem_ctrls.readRowHits                   692773                       # Number of row buffer hits during reads
system.mem_ctrls.writeRowHits                  261235                       # Number of row buffer hits during writes
system.mem_ctrls.readRowHitRate                 72.39                       # Row buffer hit rate for reads
system.mem_ctrls.writeRowHitRate                43.32                       # Row buffer hit rate for writes
system.mem_ctrls.avgGap                    1497529.20                       # Average gap between requests
system.mem_ctrls.pageHitRate                    61.15                       # Row buffer hit rate, read and write combined
system.mem_ctrls_0.actEnergy               2302065360                       # Energy for activate commands per rank (pJ)
system.mem_ctrls_0.preEnergy               1256087250                       # Energy for precharge commands per rank (pJ)
system.mem_ctrls_0.readEnergy              3873012000                       # Energy for read commands per rank (pJ)
system.mem_ctrls_0.writeEnergy             1955469600                       # Energy for write commands per rank (pJ)
system.mem_ctrls_0.refreshEnergy         153387290160                       # Energy for refresh commands per rank (pJ)
system.mem_ctrls_0.actBackEnergy         258781792365                       # Energy for active background per rank (pJ)
system.mem_ctrls_0.preBackEnergy         1182049773000                       # Energy for precharge background per rank (pJ)
system.mem_ctrls_0.totalEnergy           1603605489735                       # Total energy per rank (pJ)
system.mem_ctrls_0.averagePower            682.844736                       # Core power per rank (mW)
system.mem_ctrls_0.memoryStateTime::IDLE 1958603332502                       # Time in different power states
system.mem_ctrls_0.memoryStateTime::REF   78046540000                       # Time in different power states
system.mem_ctrls_0.memoryStateTime::PRE_PDN            0                       # Time in different power states
system.mem_ctrls_0.memoryStateTime::ACT  300619963748                       # Time in different power states
system.mem_ctrls_0.memoryStateTime::ACT_PDN            0                       # Time in different power states
system.mem_ctrls_1.actEnergy               2329719840                       # Energy for activate commands per rank (pJ)
system.mem_ctrls_1.preEnergy               1271176500                       # Energy for precharge commands per rank (pJ)
system.mem_ctrls_1.readEnergy              3881802600                       # Energy for read commands per rank (pJ)
system.mem_ctrls_1.writeEnergy             1952352720                       # Energy for write commands per rank (pJ)
system.mem_ctrls_1.refreshEnergy         153387290160                       # Energy for refresh commands per rank (pJ)
system.mem_ctrls_1.actBackEnergy         258097866750                       # Energy for active background per rank (pJ)
system.mem_ctrls_1.preBackEnergy         1182649707750                       # Energy for precharge background per rank (pJ)
system.mem_ctrls_1.totalEnergy           1603569916320                       # Total energy per rank (pJ)
system.mem_ctrls_1.averagePower            682.829588                       # Core power per rank (mW)
system.mem_ctrls_1.memoryStateTime::IDLE 1961102442750                       # Time in different power states
system.mem_ctrls_1.memoryStateTime::REF   78046540000                       # Time in different power states
system.mem_ctrls_1.memoryStateTime::PRE_PDN            0                       # Time in different power states
system.mem_ctrls_1.memoryStateTime::ACT  298119756000                       # Time in different power states
system.mem_ctrls_1.memoryStateTime::ACT_PDN            0                       # Time in different power states
system.cpu_voltage_domain.voltage                   1                       # Voltage in Volts
system.cpu_clk_domain.clock                       500                       # Clock period in ticks
system.cpu0.apic_clk_domain.clock                8000                       # Clock period in ticks
system.cpu0.numCycles                      4671098994                       # number of cpu cycles simulated
system.cpu0.numWorkItemsStarted                     0                       # number of work items this cpu started
system.cpu0.numWorkItemsCompleted                   0                       # number of work items this cpu completed
system.cpu0.kern.inst.arm                           0                       # number of arm instructions executed
system.cpu0.kern.inst.quiesce                       0                       # number of quiesce instructions executed
system.cpu0.committedInsts                 1297398356                       # Number of instructions committed
system.cpu0.committedOps                   2348618707                       # Number of ops (including micro ops) committed
system.cpu0.num_int_alu_accesses           1506649155                       # Number of integer alu accesses
system.cpu0.num_fp_alu_accesses            1130300403                       # Number of float alu accesses
system.cpu0.num_func_calls                     801820                       # number of times a function call or return occured
system.cpu0.num_conditional_control_insts    160861503                       # number of instructions that are conditional controls
system.cpu0.num_int_insts                  1506649155                       # number of integer instructions
system.cpu0.num_fp_insts                   1130300403                       # number of float instructions
system.cpu0.num_int_register_reads         2939985078                       # number of times the integer registers were read
system.cpu0.num_int_register_writes        1033732841                       # number of times the integer registers were written
system.cpu0.num_fp_register_reads          1382500491                       # number of times the floating registers were read
system.cpu0.num_fp_register_writes         1075410492                       # number of times the floating registers were written
system.cpu0.num_cc_register_reads           938963788                       # number of times the CC registers were read
system.cpu0.num_cc_register_writes          528035030                       # number of times the CC registers were written
system.cpu0.num_mem_refs                    388303909                       # number of memory refs
system.cpu0.num_load_insts                  349927189                       # Number of load instructions
system.cpu0.num_store_insts                  38376720                       # Number of store instructions
system.cpu0.num_idle_cycles              22936331.930453                       # Number of idle cycles
system.cpu0.num_busy_cycles              4648162662.069548                       # Number of busy cycles
system.cpu0.not_idle_fraction                0.995090                       # Percentage of non-idle cycles
system.cpu0.idle_fraction                    0.004910                       # Percentage of idle cycles
system.cpu0.Branches                        166253131                       # Number of branches fetched
system.cpu0.op_class::No_OpClass              3900955      0.17%      0.17% # Class of executed instruction
system.cpu0.op_class::IntAlu               1228719458     52.32%     52.48% # Class of executed instruction
system.cpu0.op_class::IntMult                 4265646      0.18%     52.66% # Class of executed instruction
system.cpu0.op_class::IntDiv                      720      0.00%     52.66% # Class of executed instruction
system.cpu0.op_class::FloatAdd              723444344     30.80%     83.47% # Class of executed instruction
system.cpu0.op_class::FloatCmp                      0      0.00%     83.47% # Class of executed instruction
system.cpu0.op_class::FloatCvt                      0      0.00%     83.47% # Class of executed instruction
system.cpu0.op_class::FloatMult                     0      0.00%     83.47% # Class of executed instruction
system.cpu0.op_class::FloatDiv                      0      0.00%     83.47% # Class of executed instruction
system.cpu0.op_class::FloatSqrt                     0      0.00%     83.47% # Class of executed instruction
system.cpu0.op_class::SimdAdd                       0      0.00%     83.47% # Class of executed instruction
system.cpu0.op_class::SimdAddAcc                    0      0.00%     83.47% # Class of executed instruction
system.cpu0.op_class::SimdAlu                       0      0.00%     83.47% # Class of executed instruction
system.cpu0.op_class::SimdCmp                       0      0.00%     83.47% # Class of executed instruction
system.cpu0.op_class::SimdCvt                       0      0.00%     83.47% # Class of executed instruction
system.cpu0.op_class::SimdMisc                      0      0.00%     83.47% # Class of executed instruction
system.cpu0.op_class::SimdMult                      0      0.00%     83.47% # Class of executed instruction
system.cpu0.op_class::SimdMultAcc                   0      0.00%     83.47% # Class of executed instruction
system.cpu0.op_class::SimdShift                     0      0.00%     83.47% # Class of executed instruction
system.cpu0.op_class::SimdShiftAcc                  0      0.00%     83.47% # Class of executed instruction
system.cpu0.op_class::SimdSqrt                      0      0.00%     83.47% # Class of executed instruction
system.cpu0.op_class::SimdFloatAdd                  0      0.00%     83.47% # Class of executed instruction
system.cpu0.op_class::SimdFloatAlu                  0      0.00%     83.47% # Class of executed instruction
system.cpu0.op_class::SimdFloatCmp                  0      0.00%     83.47% # Class of executed instruction
system.cpu0.op_class::SimdFloatCvt                  0      0.00%     83.47% # Class of executed instruction
system.cpu0.op_class::SimdFloatDiv                  0      0.00%     83.47% # Class of executed instruction
system.cpu0.op_class::SimdFloatMisc                 0      0.00%     83.47% # Class of executed instruction
system.cpu0.op_class::SimdFloatMult                 0      0.00%     83.47% # Class of executed instruction
system.cpu0.op_class::SimdFloatMultAcc              0      0.00%     83.47% # Class of executed instruction
system.cpu0.op_class::SimdFloatSqrt                 0      0.00%     83.47% # Class of executed instruction
system.cpu0.op_class::MemRead               349927189     14.90%     98.37% # Class of executed instruction
system.cpu0.op_class::MemWrite               38376720      1.63%    100.00% # Class of executed instruction
system.cpu0.op_class::IprAccess                     0      0.00%    100.00% # Class of executed instruction
system.cpu0.op_class::InstPrefetch                  0      0.00%    100.00% # Class of executed instruction
system.cpu0.op_class::total                2348635032                       # Class of executed instruction
system.cpu1.apic_clk_domain.clock                8000                       # Clock period in ticks
system.cpu1.numCycles                      4672548113                       # number of cpu cycles simulated
system.cpu1.numWorkItemsStarted                     0                       # number of work items this cpu started
system.cpu1.numWorkItemsCompleted                   0                       # number of work items this cpu completed
system.cpu1.kern.inst.arm                           0                       # number of arm instructions executed
system.cpu1.kern.inst.quiesce                       0                       # number of quiesce instructions executed
system.cpu1.committedInsts                    5117352                       # Number of instructions committed
system.cpu1.committedOps                     10260768                       # Number of ops (including micro ops) committed
system.cpu1.num_int_alu_accesses             10080557                       # Number of integer alu accesses
system.cpu1.num_fp_alu_accesses                  1893                       # Number of float alu accesses
system.cpu1.num_func_calls                     261659                       # number of times a function call or return occured
system.cpu1.num_conditional_control_insts       889878                       # number of instructions that are conditional controls
system.cpu1.num_int_insts                    10080557                       # number of integer instructions
system.cpu1.num_fp_insts                         1893                       # number of float instructions
system.cpu1.num_int_register_reads           19895144                       # number of times the integer registers were read
system.cpu1.num_int_register_writes           8200879                       # number of times the integer registers were written
system.cpu1.num_fp_register_reads                3183                       # number of times the floating registers were read
system.cpu1.num_fp_register_writes               1511                       # number of times the floating registers were written
system.cpu1.num_cc_register_reads             6597184                       # number of times the CC registers were read
system.cpu1.num_cc_register_writes            3514926                       # number of times the CC registers were written
system.cpu1.num_mem_refs                      2255740                       # number of memory refs
system.cpu1.num_load_insts                    1464778                       # Number of load instructions
system.cpu1.num_store_insts                    790962                       # Number of store instructions
system.cpu1.num_idle_cycles              4650086801.182043                       # Number of idle cycles
system.cpu1.num_busy_cycles              22461311.817957                       # Number of busy cycles
system.cpu1.not_idle_fraction                0.004807                       # Percentage of non-idle cycles
system.cpu1.idle_fraction                    0.995193                       # Percentage of idle cycles
system.cpu1.Branches                          1202265                       # Number of branches fetched
system.cpu1.op_class::No_OpClass                73895      0.72%      0.72% # Class of executed instruction
system.cpu1.op_class::IntAlu                  7896305     76.96%     77.68% # Class of executed instruction
system.cpu1.op_class::IntMult                   11566      0.11%     77.79% # Class of executed instruction
system.cpu1.op_class::IntDiv                    21920      0.21%     78.00% # Class of executed instruction
system.cpu1.op_class::FloatAdd                   1434      0.01%     78.02% # Class of executed instruction
system.cpu1.op_class::FloatCmp                      0      0.00%     78.02% # Class of executed instruction
system.cpu1.op_class::FloatCvt                      0      0.00%     78.02% # Class of executed instruction
system.cpu1.op_class::FloatMult                     0      0.00%     78.02% # Class of executed instruction
system.cpu1.op_class::FloatDiv                      0      0.00%     78.02% # Class of executed instruction
system.cpu1.op_class::FloatSqrt                     0      0.00%     78.02% # Class of executed instruction
system.cpu1.op_class::SimdAdd                       0      0.00%     78.02% # Class of executed instruction
system.cpu1.op_class::SimdAddAcc                    0      0.00%     78.02% # Class of executed instruction
system.cpu1.op_class::SimdAlu                       0      0.00%     78.02% # Class of executed instruction
system.cpu1.op_class::SimdCmp                       0      0.00%     78.02% # Class of executed instruction
system.cpu1.op_class::SimdCvt                       0      0.00%     78.02% # Class of executed instruction
system.cpu1.op_class::SimdMisc                      0      0.00%     78.02% # Class of executed instruction
system.cpu1.op_class::SimdMult                      0      0.00%     78.02% # Class of executed instruction
system.cpu1.op_class::SimdMultAcc                   0      0.00%     78.02% # Class of executed instruction
system.cpu1.op_class::SimdShift                     0      0.00%     78.02% # Class of executed instruction
system.cpu1.op_class::SimdShiftAcc                  0      0.00%     78.02% # Class of executed instruction
system.cpu1.op_class::SimdSqrt                      0      0.00%     78.02% # Class of executed instruction
system.cpu1.op_class::SimdFloatAdd                  0      0.00%     78.02% # Class of executed instruction
system.cpu1.op_class::SimdFloatAlu                  0      0.00%     78.02% # Class of executed instruction
system.cpu1.op_class::SimdFloatCmp                  0      0.00%     78.02% # Class of executed instruction
system.cpu1.op_class::SimdFloatCvt                  0      0.00%     78.02% # Class of executed instruction
system.cpu1.op_class::SimdFloatDiv                  0      0.00%     78.02% # Class of executed instruction
system.cpu1.op_class::SimdFloatMisc                 0      0.00%     78.02% # Class of executed instruction
system.cpu1.op_class::SimdFloatMult                 0      0.00%     78.02% # Class of executed instruction
system.cpu1.op_class::SimdFloatMultAcc              0      0.00%     78.02% # Class of executed instruction
system.cpu1.op_class::SimdFloatSqrt                 0      0.00%     78.02% # Class of executed instruction
system.cpu1.op_class::MemRead                 1464778     14.28%     92.29% # Class of executed instruction
system.cpu1.op_class::MemWrite                 790962      7.71%    100.00% # Class of executed instruction
system.cpu1.op_class::IprAccess                     0      0.00%    100.00% # Class of executed instruction
system.cpu1.op_class::InstPrefetch                  0      0.00%    100.00% # Class of executed instruction
system.cpu1.op_class::total                  10260860                       # Class of executed instruction
system.cpu2.apic_clk_domain.clock                8000                       # Clock period in ticks
system.cpu2.numCycles                      4674238503                       # number of cpu cycles simulated
system.cpu2.numWorkItemsStarted                     0                       # number of work items this cpu started
system.cpu2.numWorkItemsCompleted                   0                       # number of work items this cpu completed
system.cpu2.kern.inst.arm                           0                       # number of arm instructions executed
system.cpu2.kern.inst.quiesce                       0                       # number of quiesce instructions executed
system.cpu2.committedInsts                    1921195                       # Number of instructions committed
system.cpu2.committedOps                      4109134                       # Number of ops (including micro ops) committed
system.cpu2.num_int_alu_accesses              4023375                       # Number of integer alu accesses
system.cpu2.num_fp_alu_accesses                    39                       # Number of float alu accesses
system.cpu2.num_func_calls                     108004                       # number of times a function call or return occured
system.cpu2.num_conditional_control_insts       322660                       # number of instructions that are conditional controls
system.cpu2.num_int_insts                     4023375                       # number of integer instructions
system.cpu2.num_fp_insts                           39                       # number of float instructions
system.cpu2.num_int_register_reads            8032968                       # number of times the integer registers were read
system.cpu2.num_int_register_writes           3323225                       # number of times the integer registers were written
system.cpu2.num_fp_register_reads                  63                       # number of times the floating registers were read
system.cpu2.num_fp_register_writes                 31                       # number of times the floating registers were written
system.cpu2.num_cc_register_reads             2487206                       # number of times the CC registers were read
system.cpu2.num_cc_register_writes            1262599                       # number of times the CC registers were written
system.cpu2.num_mem_refs                       927157                       # number of memory refs
system.cpu2.num_load_insts                     577058                       # Number of load instructions
system.cpu2.num_store_insts                    350099                       # Number of store instructions
system.cpu2.num_idle_cycles              4665918252.326270                       # Number of idle cycles
system.cpu2.num_busy_cycles              8320250.673730                       # Number of busy cycles
system.cpu2.not_idle_fraction                0.001780                       # Percentage of non-idle cycles
system.cpu2.idle_fraction                    0.998220                       # Percentage of idle cycles
system.cpu2.Branches                           465636                       # Number of branches fetched
system.cpu2.op_class::No_OpClass                71338      1.74%      1.74% # Class of executed instruction
system.cpu2.op_class::IntAlu                  3078029     74.91%     76.64% # Class of executed instruction
system.cpu2.op_class::IntMult                    7404      0.18%     76.82% # Class of executed instruction
system.cpu2.op_class::IntDiv                    25199      0.61%     77.44% # Class of executed instruction
system.cpu2.op_class::FloatAdd                     30      0.00%     77.44% # Class of executed instruction
system.cpu2.op_class::FloatCmp                      0      0.00%     77.44% # Class of executed instruction
system.cpu2.op_class::FloatCvt                      0      0.00%     77.44% # Class of executed instruction
system.cpu2.op_class::FloatMult                     0      0.00%     77.44% # Class of executed instruction
system.cpu2.op_class::FloatDiv                      0      0.00%     77.44% # Class of executed instruction
system.cpu2.op_class::FloatSqrt                     0      0.00%     77.44% # Class of executed instruction
system.cpu2.op_class::SimdAdd                       0      0.00%     77.44% # Class of executed instruction
system.cpu2.op_class::SimdAddAcc                    0      0.00%     77.44% # Class of executed instruction
system.cpu2.op_class::SimdAlu                       0      0.00%     77.44% # Class of executed instruction
system.cpu2.op_class::SimdCmp                       0      0.00%     77.44% # Class of executed instruction
system.cpu2.op_class::SimdCvt                       0      0.00%     77.44% # Class of executed instruction
system.cpu2.op_class::SimdMisc                      0      0.00%     77.44% # Class of executed instruction
system.cpu2.op_class::SimdMult                      0      0.00%     77.44% # Class of executed instruction
system.cpu2.op_class::SimdMultAcc                   0      0.00%     77.44% # Class of executed instruction
system.cpu2.op_class::SimdShift                     0      0.00%     77.44% # Class of executed instruction
system.cpu2.op_class::SimdShiftAcc                  0      0.00%     77.44% # Class of executed instruction
system.cpu2.op_class::SimdSqrt                      0      0.00%     77.44% # Class of executed instruction
system.cpu2.op_class::SimdFloatAdd                  0      0.00%     77.44% # Class of executed instruction
system.cpu2.op_class::SimdFloatAlu                  0      0.00%     77.44% # Class of executed instruction
system.cpu2.op_class::SimdFloatCmp                  0      0.00%     77.44% # Class of executed instruction
system.cpu2.op_class::SimdFloatCvt                  0      0.00%     77.44% # Class of executed instruction
system.cpu2.op_class::SimdFloatDiv                  0      0.00%     77.44% # Class of executed instruction
system.cpu2.op_class::SimdFloatMisc                 0      0.00%     77.44% # Class of executed instruction
system.cpu2.op_class::SimdFloatMult                 0      0.00%     77.44% # Class of executed instruction
system.cpu2.op_class::SimdFloatMultAcc              0      0.00%     77.44% # Class of executed instruction
system.cpu2.op_class::SimdFloatSqrt                 0      0.00%     77.44% # Class of executed instruction
system.cpu2.op_class::MemRead                  577058     14.04%     91.48% # Class of executed instruction
system.cpu2.op_class::MemWrite                 350099      8.52%    100.00% # Class of executed instruction
system.cpu2.op_class::IprAccess                     0      0.00%    100.00% # Class of executed instruction
system.cpu2.op_class::InstPrefetch                  0      0.00%    100.00% # Class of executed instruction
system.cpu2.op_class::total                   4109157                       # Class of executed instruction
system.cpu3.apic_clk_domain.clock                8000                       # Clock period in ticks
system.cpu3.numCycles                      4676456786                       # number of cpu cycles simulated
system.cpu3.numWorkItemsStarted                     0                       # number of work items this cpu started
system.cpu3.numWorkItemsCompleted                   0                       # number of work items this cpu completed
system.cpu3.kern.inst.arm                           0                       # number of arm instructions executed
system.cpu3.kern.inst.quiesce                       0                       # number of quiesce instructions executed
system.cpu3.committedInsts                    3626853                       # Number of instructions committed
system.cpu3.committedOps                      7454244                       # Number of ops (including micro ops) committed
system.cpu3.num_int_alu_accesses              7243153                       # Number of integer alu accesses
system.cpu3.num_fp_alu_accesses                   372                       # Number of float alu accesses
system.cpu3.num_func_calls                     164290                       # number of times a function call or return occured
system.cpu3.num_conditional_control_insts       590138                       # number of instructions that are conditional controls
system.cpu3.num_int_insts                     7243153                       # number of integer instructions
system.cpu3.num_fp_insts                          372                       # number of float instructions
system.cpu3.num_int_register_reads           14123012                       # number of times the integer registers were read
system.cpu3.num_int_register_writes           5975730                       # number of times the integer registers were written
system.cpu3.num_fp_register_reads                 596                       # number of times the floating registers were read
system.cpu3.num_fp_register_writes                261                       # number of times the floating registers were written
system.cpu3.num_cc_register_reads             4511629                       # number of times the CC registers were read
system.cpu3.num_cc_register_writes            2770626                       # number of times the CC registers were written
system.cpu3.num_mem_refs                      1520668                       # number of memory refs
system.cpu3.num_load_insts                     944278                       # Number of load instructions
system.cpu3.num_store_insts                    576390                       # Number of store instructions
system.cpu3.num_idle_cycles              4658088962.475853                       # Number of idle cycles
system.cpu3.num_busy_cycles              18367823.524147                       # Number of busy cycles
system.cpu3.not_idle_fraction                0.003928                       # Percentage of non-idle cycles
system.cpu3.idle_fraction                    0.996072                       # Percentage of idle cycles
system.cpu3.Branches                           813964                       # Number of branches fetched
system.cpu3.op_class::No_OpClass                77310      1.04%      1.04% # Class of executed instruction
system.cpu3.op_class::IntAlu                  5821666     78.10%     79.13% # Class of executed instruction
system.cpu3.op_class::IntMult                    8249      0.11%     79.25% # Class of executed instruction
system.cpu3.op_class::IntDiv                    26193      0.35%     79.60% # Class of executed instruction
system.cpu3.op_class::FloatAdd                    244      0.00%     79.60% # Class of executed instruction
system.cpu3.op_class::FloatCmp                      0      0.00%     79.60% # Class of executed instruction
system.cpu3.op_class::FloatCvt                      0      0.00%     79.60% # Class of executed instruction
system.cpu3.op_class::FloatMult                     0      0.00%     79.60% # Class of executed instruction
system.cpu3.op_class::FloatDiv                      0      0.00%     79.60% # Class of executed instruction
system.cpu3.op_class::FloatSqrt                     0      0.00%     79.60% # Class of executed instruction
system.cpu3.op_class::SimdAdd                       0      0.00%     79.60% # Class of executed instruction
system.cpu3.op_class::SimdAddAcc                    0      0.00%     79.60% # Class of executed instruction
system.cpu3.op_class::SimdAlu                       0      0.00%     79.60% # Class of executed instruction
system.cpu3.op_class::SimdCmp                       0      0.00%     79.60% # Class of executed instruction
system.cpu3.op_class::SimdCvt                       0      0.00%     79.60% # Class of executed instruction
system.cpu3.op_class::SimdMisc                      0      0.00%     79.60% # Class of executed instruction
system.cpu3.op_class::SimdMult                      0      0.00%     79.60% # Class of executed instruction
system.cpu3.op_class::SimdMultAcc                   0      0.00%     79.60% # Class of executed instruction
system.cpu3.op_class::SimdShift                     0      0.00%     79.60% # Class of executed instruction
system.cpu3.op_class::SimdShiftAcc                  0      0.00%     79.60% # Class of executed instruction
system.cpu3.op_class::SimdSqrt                      0      0.00%     79.60% # Class of executed instruction
system.cpu3.op_class::SimdFloatAdd                  0      0.00%     79.60% # Class of executed instruction
system.cpu3.op_class::SimdFloatAlu                  0      0.00%     79.60% # Class of executed instruction
system.cpu3.op_class::SimdFloatCmp                  0      0.00%     79.60% # Class of executed instruction
system.cpu3.op_class::SimdFloatCvt                  0      0.00%     79.60% # Class of executed instruction
system.cpu3.op_class::SimdFloatDiv                  0      0.00%     79.60% # Class of executed instruction
system.cpu3.op_class::SimdFloatMisc                 0      0.00%     79.60% # Class of executed instruction
system.cpu3.op_class::SimdFloatMult                 0      0.00%     79.60% # Class of executed instruction
system.cpu3.op_class::SimdFloatMultAcc              0      0.00%     79.60% # Class of executed instruction
system.cpu3.op_class::SimdFloatSqrt                 0      0.00%     79.60% # Class of executed instruction
system.cpu3.op_class::MemRead                  944278     12.67%     92.27% # Class of executed instruction
system.cpu3.op_class::MemWrite                 576390      7.73%    100.00% # Class of executed instruction
system.cpu3.op_class::IprAccess                     0      0.00%    100.00% # Class of executed instruction
system.cpu3.op_class::InstPrefetch                  0      0.00%    100.00% # Class of executed instruction
system.cpu3.op_class::total                   7454330                       # Class of executed instruction
system.iobus.trans_dist::ReadReq                  403                       # Transaction distribution
system.iobus.trans_dist::ReadResp                 403                       # Transaction distribution
system.iobus.trans_dist::WriteReq                3045                       # Transaction distribution
system.iobus.trans_dist::WriteResp               3045                       # Transaction distribution
system.iobus.trans_dist::MessageReq                55                       # Transaction distribution
system.iobus.trans_dist::MessageResp               55                       # Transaction distribution
system.iobus.pkt_count_system.pc.south_bridge.io_apic.int_master::system.ruby.l1_cntrl0.sequencer.pio-slave-port           22                       # Packet count per connected master and slave (bytes)
system.iobus.pkt_count_system.pc.south_bridge.io_apic.int_master::system.ruby.l1_cntrl1.sequencer.pio-slave-port           22                       # Packet count per connected master and slave (bytes)
system.iobus.pkt_count_system.pc.south_bridge.io_apic.int_master::system.ruby.l1_cntrl2.sequencer.pio-slave-port           22                       # Packet count per connected master and slave (bytes)
system.iobus.pkt_count_system.pc.south_bridge.io_apic.int_master::system.ruby.l1_cntrl3.sequencer.pio-slave-port           22                       # Packet count per connected master and slave (bytes)
system.iobus.pkt_count_system.pc.south_bridge.io_apic.int_master::total           88                       # Packet count per connected master and slave (bytes)
system.iobus.pkt_count_system.ruby.l1_cntrl0.sequencer.mem-master-port::system.pc.south_bridge.ide.pio          426                       # Packet count per connected master and slave (bytes)
system.iobus.pkt_count_system.ruby.l1_cntrl0.sequencer.mem-master-port::system.pc.south_bridge.io_apic.pio            8                       # Packet count per connected master and slave (bytes)
system.iobus.pkt_count_system.ruby.l1_cntrl0.sequencer.mem-master-port::system.ruby.l1_cntrl0.sequencer.pio-slave-port         1216                       # Packet count per connected master and slave (bytes)
system.iobus.pkt_count_system.ruby.l1_cntrl0.sequencer.mem-master-port::system.ruby.l1_cntrl1.sequencer.pio-slave-port            2                       # Packet count per connected master and slave (bytes)
system.iobus.pkt_count_system.ruby.l1_cntrl0.sequencer.mem-master-port::system.ruby.l1_cntrl3.sequencer.pio-slave-port            4                       # Packet count per connected master and slave (bytes)
system.iobus.pkt_count_system.ruby.l1_cntrl0.sequencer.mem-master-port::total         1656                       # Packet count per connected master and slave (bytes)
system.iobus.pkt_count_system.ruby.l1_cntrl1.sequencer.mem-master-port::system.pc.south_bridge.ide.pio          562                       # Packet count per connected master and slave (bytes)
system.iobus.pkt_count_system.ruby.l1_cntrl1.sequencer.mem-master-port::system.pc.south_bridge.io_apic.pio            8                       # Packet count per connected master and slave (bytes)
system.iobus.pkt_count_system.ruby.l1_cntrl1.sequencer.mem-master-port::system.ruby.l1_cntrl0.sequencer.pio-slave-port            2                       # Packet count per connected master and slave (bytes)
system.iobus.pkt_count_system.ruby.l1_cntrl1.sequencer.mem-master-port::system.ruby.l1_cntrl1.sequencer.pio-slave-port         1210                       # Packet count per connected master and slave (bytes)
system.iobus.pkt_count_system.ruby.l1_cntrl1.sequencer.mem-master-port::system.ruby.l1_cntrl2.sequencer.pio-slave-port            2                       # Packet count per connected master and slave (bytes)
system.iobus.pkt_count_system.ruby.l1_cntrl1.sequencer.mem-master-port::system.ruby.l1_cntrl3.sequencer.pio-slave-port            2                       # Packet count per connected master and slave (bytes)
system.iobus.pkt_count_system.ruby.l1_cntrl1.sequencer.mem-master-port::total         1786                       # Packet count per connected master and slave (bytes)
system.iobus.pkt_count_system.ruby.l1_cntrl2.sequencer.mem-master-port::system.pc.south_bridge.ide.pio          460                       # Packet count per connected master and slave (bytes)
system.iobus.pkt_count_system.ruby.l1_cntrl2.sequencer.mem-master-port::system.pc.south_bridge.io_apic.pio            6                       # Packet count per connected master and slave (bytes)
system.iobus.pkt_count_system.ruby.l1_cntrl2.sequencer.mem-master-port::system.pc.com_1.pio          174                       # Packet count per connected master and slave (bytes)
system.iobus.pkt_count_system.ruby.l1_cntrl2.sequencer.mem-master-port::system.ruby.l1_cntrl2.sequencer.pio-slave-port         1200                       # Packet count per connected master and slave (bytes)
system.iobus.pkt_count_system.ruby.l1_cntrl2.sequencer.mem-master-port::system.ruby.l1_cntrl3.sequencer.pio-slave-port            2                       # Packet count per connected master and slave (bytes)
system.iobus.pkt_count_system.ruby.l1_cntrl2.sequencer.mem-master-port::total         1842                       # Packet count per connected master and slave (bytes)
system.iobus.pkt_count_system.ruby.l1_cntrl3.sequencer.mem-master-port::system.pc.south_bridge.ide.pio          392                       # Packet count per connected master and slave (bytes)
system.iobus.pkt_count_system.ruby.l1_cntrl3.sequencer.mem-master-port::system.pc.south_bridge.io_apic.pio            8                       # Packet count per connected master and slave (bytes)
system.iobus.pkt_count_system.ruby.l1_cntrl3.sequencer.mem-master-port::system.pc.com_1.pio            2                       # Packet count per connected master and slave (bytes)
system.iobus.pkt_count_system.ruby.l1_cntrl3.sequencer.mem-master-port::system.ruby.l1_cntrl0.sequencer.pio-slave-port            6                       # Packet count per connected master and slave (bytes)
system.iobus.pkt_count_system.ruby.l1_cntrl3.sequencer.mem-master-port::system.ruby.l1_cntrl2.sequencer.pio-slave-port            2                       # Packet count per connected master and slave (bytes)
system.iobus.pkt_count_system.ruby.l1_cntrl3.sequencer.mem-master-port::system.ruby.l1_cntrl3.sequencer.pio-slave-port         1224                       # Packet count per connected master and slave (bytes)
system.iobus.pkt_count_system.ruby.l1_cntrl3.sequencer.mem-master-port::total         1634                       # Packet count per connected master and slave (bytes)
system.iobus.pkt_count::total                    7006                       # Packet count per connected master and slave (bytes)
system.iobus.pkt_size_system.pc.south_bridge.io_apic.int_master::system.ruby.l1_cntrl0.sequencer.pio-slave-port           44                       # Cumulative packet size per connected master and slave (bytes)
system.iobus.pkt_size_system.pc.south_bridge.io_apic.int_master::system.ruby.l1_cntrl1.sequencer.pio-slave-port           44                       # Cumulative packet size per connected master and slave (bytes)
system.iobus.pkt_size_system.pc.south_bridge.io_apic.int_master::system.ruby.l1_cntrl2.sequencer.pio-slave-port           44                       # Cumulative packet size per connected master and slave (bytes)
system.iobus.pkt_size_system.pc.south_bridge.io_apic.int_master::system.ruby.l1_cntrl3.sequencer.pio-slave-port           44                       # Cumulative packet size per connected master and slave (bytes)
system.iobus.pkt_size_system.pc.south_bridge.io_apic.int_master::total          176                       # Cumulative packet size per connected master and slave (bytes)
system.iobus.pkt_size_system.ruby.l1_cntrl0.sequencer.mem-master-port::system.pc.south_bridge.ide.pio          240                       # Cumulative packet size per connected master and slave (bytes)
system.iobus.pkt_size_system.ruby.l1_cntrl0.sequencer.mem-master-port::system.pc.south_bridge.io_apic.pio           16                       # Cumulative packet size per connected master and slave (bytes)
system.iobus.pkt_size_system.ruby.l1_cntrl0.sequencer.mem-master-port::system.ruby.l1_cntrl0.sequencer.pio-slave-port         2432                       # Cumulative packet size per connected master and slave (bytes)
system.iobus.pkt_size_system.ruby.l1_cntrl0.sequencer.mem-master-port::system.ruby.l1_cntrl1.sequencer.pio-slave-port            4                       # Cumulative packet size per connected master and slave (bytes)
system.iobus.pkt_size_system.ruby.l1_cntrl0.sequencer.mem-master-port::system.ruby.l1_cntrl3.sequencer.pio-slave-port            8                       # Cumulative packet size per connected master and slave (bytes)
system.iobus.pkt_size_system.ruby.l1_cntrl0.sequencer.mem-master-port::total         2700                       # Cumulative packet size per connected master and slave (bytes)
system.iobus.pkt_size_system.ruby.l1_cntrl1.sequencer.mem-master-port::system.pc.south_bridge.ide.pio          320                       # Cumulative packet size per connected master and slave (bytes)
system.iobus.pkt_size_system.ruby.l1_cntrl1.sequencer.mem-master-port::system.pc.south_bridge.io_apic.pio           16                       # Cumulative packet size per connected master and slave (bytes)
system.iobus.pkt_size_system.ruby.l1_cntrl1.sequencer.mem-master-port::system.ruby.l1_cntrl0.sequencer.pio-slave-port            4                       # Cumulative packet size per connected master and slave (bytes)
system.iobus.pkt_size_system.ruby.l1_cntrl1.sequencer.mem-master-port::system.ruby.l1_cntrl1.sequencer.pio-slave-port         2420                       # Cumulative packet size per connected master and slave (bytes)
system.iobus.pkt_size_system.ruby.l1_cntrl1.sequencer.mem-master-port::system.ruby.l1_cntrl2.sequencer.pio-slave-port            4                       # Cumulative packet size per connected master and slave (bytes)
system.iobus.pkt_size_system.ruby.l1_cntrl1.sequencer.mem-master-port::system.ruby.l1_cntrl3.sequencer.pio-slave-port            4                       # Cumulative packet size per connected master and slave (bytes)
system.iobus.pkt_size_system.ruby.l1_cntrl1.sequencer.mem-master-port::total         2768                       # Cumulative packet size per connected master and slave (bytes)
system.iobus.pkt_size_system.ruby.l1_cntrl2.sequencer.mem-master-port::system.pc.south_bridge.ide.pio          260                       # Cumulative packet size per connected master and slave (bytes)
system.iobus.pkt_size_system.ruby.l1_cntrl2.sequencer.mem-master-port::system.pc.south_bridge.io_apic.pio           12                       # Cumulative packet size per connected master and slave (bytes)
system.iobus.pkt_size_system.ruby.l1_cntrl2.sequencer.mem-master-port::system.pc.com_1.pio           87                       # Cumulative packet size per connected master and slave (bytes)
system.iobus.pkt_size_system.ruby.l1_cntrl2.sequencer.mem-master-port::system.ruby.l1_cntrl2.sequencer.pio-slave-port         2400                       # Cumulative packet size per connected master and slave (bytes)
system.iobus.pkt_size_system.ruby.l1_cntrl2.sequencer.mem-master-port::system.ruby.l1_cntrl3.sequencer.pio-slave-port            4                       # Cumulative packet size per connected master and slave (bytes)
system.iobus.pkt_size_system.ruby.l1_cntrl2.sequencer.mem-master-port::total         2763                       # Cumulative packet size per connected master and slave (bytes)
system.iobus.pkt_size_system.ruby.l1_cntrl3.sequencer.mem-master-port::system.pc.south_bridge.ide.pio          220                       # Cumulative packet size per connected master and slave (bytes)
system.iobus.pkt_size_system.ruby.l1_cntrl3.sequencer.mem-master-port::system.pc.south_bridge.io_apic.pio           16                       # Cumulative packet size per connected master and slave (bytes)
system.iobus.pkt_size_system.ruby.l1_cntrl3.sequencer.mem-master-port::system.pc.com_1.pio            1                       # Cumulative packet size per connected master and slave (bytes)
system.iobus.pkt_size_system.ruby.l1_cntrl3.sequencer.mem-master-port::system.ruby.l1_cntrl0.sequencer.pio-slave-port           12                       # Cumulative packet size per connected master and slave (bytes)
system.iobus.pkt_size_system.ruby.l1_cntrl3.sequencer.mem-master-port::system.ruby.l1_cntrl2.sequencer.pio-slave-port            4                       # Cumulative packet size per connected master and slave (bytes)
system.iobus.pkt_size_system.ruby.l1_cntrl3.sequencer.mem-master-port::system.ruby.l1_cntrl3.sequencer.pio-slave-port         2448                       # Cumulative packet size per connected master and slave (bytes)
system.iobus.pkt_size_system.ruby.l1_cntrl3.sequencer.mem-master-port::total         2701                       # Cumulative packet size per connected master and slave (bytes)
system.iobus.pkt_size::total                    11108                       # Cumulative packet size per connected master and slave (bytes)
system.iobus.reqLayer2.occupancy              1597500                       # Layer occupancy (ticks)
system.iobus.reqLayer2.utilization                0.0                       # Layer utilization (%)
system.iobus.reqLayer8.occupancy                27996                       # Layer occupancy (ticks)
system.iobus.reqLayer8.utilization                0.0                       # Layer utilization (%)
system.iobus.reqLayer12.occupancy              113000                       # Layer occupancy (ticks)
system.iobus.reqLayer12.utilization               0.0                       # Layer utilization (%)
system.iobus.reqLayer17.occupancy             1675462                       # Layer occupancy (ticks)
system.iobus.reqLayer17.utilization               0.0                       # Layer utilization (%)
system.iobus.reqLayer18.occupancy             1509988                       # Layer occupancy (ticks)
system.iobus.reqLayer18.utilization               0.0                       # Layer utilization (%)
system.iobus.reqLayer19.occupancy             1498990                       # Layer occupancy (ticks)
system.iobus.reqLayer19.utilization               0.0                       # Layer utilization (%)
system.iobus.reqLayer20.occupancy             1519989                       # Layer occupancy (ticks)
system.iobus.reqLayer20.utilization               0.0                       # Layer utilization (%)
system.iobus.respLayer0.occupancy               76960                       # Layer occupancy (ticks)
system.iobus.respLayer0.utilization               0.0                       # Layer utilization (%)
system.iobus.respLayer2.occupancy             1213500                       # Layer occupancy (ticks)
system.iobus.respLayer2.utilization               0.0                       # Layer utilization (%)
system.iobus.respLayer4.occupancy             1292500                       # Layer occupancy (ticks)
system.iobus.respLayer4.utilization               0.0                       # Layer utilization (%)
system.iobus.respLayer6.occupancy             1368000                       # Layer occupancy (ticks)
system.iobus.respLayer6.utilization               0.0                       # Layer utilization (%)
system.iobus.respLayer8.occupancy             1201000                       # Layer occupancy (ticks)
system.iobus.respLayer8.utilization               0.0                       # Layer utilization (%)
system.pc.south_bridge.ide.disks.dma_read_full_pages          356                       # Number of full page size DMA reads (not PRD).
system.pc.south_bridge.ide.disks.dma_read_bytes      1458176                       # Number of bytes transfered via DMA reads (not PRD).
system.pc.south_bridge.ide.disks.dma_read_txs          356                       # Number of DMA read transactions (not PRD).
system.pc.south_bridge.ide.disks.dma_write_full_pages            0                       # Number of full page size DMA writes.
system.pc.south_bridge.ide.disks.dma_write_bytes            0                       # Number of bytes transfered via DMA writes.
system.pc.south_bridge.ide.disks.dma_write_txs            0                       # Number of DMA write transactions.
system.ruby.clk_domain.clock                      500                       # Clock period in ticks
system.ruby.delayHist::bucket_size                  4                       # delay histogram for all message
system.ruby.delayHist::max_bucket                  39                       # delay histogram for all message
system.ruby.delayHist::samples               12878915                       # delay histogram for all message
system.ruby.delayHist::mean                  0.634673                       # delay histogram for all message
system.ruby.delayHist::stdev                 2.161048                       # delay histogram for all message
system.ruby.delayHist                    |    11860870     92.10%     92.10% |        1497      0.01%     92.11% |     1015943      7.89%    100.00% |         103      0.00%    100.00% |         478      0.00%    100.00% |           6      0.00%    100.00% |          16      0.00%    100.00% |           1      0.00%    100.00% |           0      0.00%    100.00% |           1      0.00%    100.00% # delay histogram for all message
system.ruby.delayHist::total                 12878915                       # delay histogram for all message
system.ruby.outstanding_req_hist_seqr::bucket_size            1                      
system.ruby.outstanding_req_hist_seqr::max_bucket            9                      
system.ruby.outstanding_req_hist_seqr::samples   2273731683                      
system.ruby.outstanding_req_hist_seqr::mean     1.001963                      
system.ruby.outstanding_req_hist_seqr::gmean     1.001361                      
system.ruby.outstanding_req_hist_seqr::stdev     0.044258                      
system.ruby.outstanding_req_hist_seqr    |           0      0.00%      0.00% |  2269269128     99.80%     99.80% |     4462555      0.20%    100.00% |           0      0.00%    100.00% |           0      0.00%    100.00% |           0      0.00%    100.00% |           0      0.00%    100.00% |           0      0.00%    100.00% |           0      0.00%    100.00% |           0      0.00%    100.00%
system.ruby.outstanding_req_hist_seqr::total   2273731683                      
system.ruby.latency_hist_seqr::bucket_size          256                      
system.ruby.latency_hist_seqr::max_bucket         2559                      
system.ruby.latency_hist_seqr::samples     2273731683                      
system.ruby.latency_hist_seqr::mean          1.069176                      
system.ruby.latency_hist_seqr::gmean         1.003751                      
system.ruby.latency_hist_seqr::stdev         3.457584                      
system.ruby.latency_hist_seqr            |  2273678197    100.00%    100.00% |       35541      0.00%    100.00% |       16557      0.00%    100.00% |         935      0.00%    100.00% |         382      0.00%    100.00% |          57      0.00%    100.00% |          11      0.00%    100.00% |           3      0.00%    100.00% |           0      0.00%    100.00% |           0      0.00%    100.00%
system.ruby.latency_hist_seqr::total       2273731683                      
system.ruby.hit_latency_hist_seqr::bucket_size            1                      
system.ruby.hit_latency_hist_seqr::max_bucket            9                      
system.ruby.hit_latency_hist_seqr::samples   2271439910                      
[...]
system.ruby.Locked_RMW_Write.hit_latency_hist_seqr::total       210549                      
system.ruby.Directory_Controller.Fetch         934923      0.00%      0.00%
system.ruby.Directory_Controller.Data          603092      0.00%      0.00%
system.ruby.Directory_Controller.Memory_Data       957655      0.00%      0.00%
system.ruby.Directory_Controller.Memory_Ack       603092      0.00%      0.00%
system.ruby.Directory_Controller.DMA_READ        22971      0.00%      0.00%
system.ruby.Directory_Controller.CleanReplacement       303411      0.00%      0.00%
system.ruby.Directory_Controller.I.Fetch       934923      0.00%      0.00%
system.ruby.Directory_Controller.I.DMA_READ        22732      0.00%      0.00%
system.ruby.Directory_Controller.ID.Memory_Data        22732      0.00%      0.00%
system.ruby.Directory_Controller.M.Data        602853      0.00%      0.00%
system.ruby.Directory_Controller.M.DMA_READ          239      0.00%      0.00%
system.ruby.Directory_Controller.M.CleanReplacement       303411      0.00%      0.00%
system.ruby.Directory_Controller.IM.Memory_Data       934923      0.00%      0.00%
system.ruby.Directory_Controller.MI.Memory_Ack       602853      0.00%      0.00%
system.ruby.Directory_Controller.M_DRD.Data          239      0.00%      0.00%
system.ruby.Directory_Controller.M_DRDI.Memory_Ack          239      0.00%      0.00%
system.ruby.DMA_Controller.ReadRequest   |       22971    100.00%    100.00% |           0      0.00%    100.00%
system.ruby.DMA_Controller.ReadRequest::total        22971                      
system.ruby.DMA_Controller.Data          |       22971    100.00%    100.00% |           0      0.00%    100.00%
system.ruby.DMA_Controller.Data::total          22971                      
system.ruby.DMA_Controller.READY.ReadRequest |       22971    100.00%    100.00% |           0      0.00%    100.00%
system.ruby.DMA_Controller.READY.ReadRequest::total        22971                      
system.ruby.DMA_Controller.BUSY_RD.Data  |       22971    100.00%    100.00% |           0      0.00%    100.00%
system.ruby.DMA_Controller.BUSY_RD.Data::total        22971                      
system.ruby.L1Cache_Controller.Load      |   353707700     99.24%     99.24% |     1338453      0.38%     99.62% |      536004      0.15%     99.77% |      824439      0.23%    100.00%
system.ruby.L1Cache_Controller.Load::total    356406596                      
system.ruby.L1Cache_Controller.Ifetch    |  1861762954     99.25%     99.25% |     6636288      0.35%     99.61% |     2514027      0.13%     99.74% |     4825456      0.26%    100.00%
system.ruby.L1Cache_Controller.Ifetch::total   1875738725                      
system.ruby.L1Cache_Controller.Store     |    39578508     95.17%     95.17% |      919043      2.21%     97.38% |      390701      0.94%     98.32% |      698110      1.68%    100.00%
system.ruby.L1Cache_Controller.Store::total     41586362                      
system.ruby.L1Cache_Controller.Inv       |        6866     10.90%     10.90% |       20077     31.87%     42.76% |       16145     25.63%     68.39% |       19916     31.61%    100.00%
system.ruby.L1Cache_Controller.Inv::total        63004                      
system.ruby.L1Cache_Controller.L1_Replacement |     2011488     89.25%     89.25% |      120463      5.35%     94.60% |       36533      1.62%     96.22% |       85253      3.78%    100.00%
system.ruby.L1Cache_Controller.L1_Replacement::total      2253737                      
system.ruby.L1Cache_Controller.Fwd_GETX  |         188     13.33%     13.33% |         478     33.90%     47.23% |         331     23.48%     70.71% |         413     29.29%    100.00%
system.ruby.L1Cache_Controller.Fwd_GETX::total         1410                      
system.ruby.L1Cache_Controller.Fwd_GETS  |        4435     28.52%     28.52% |        3928     25.26%     53.77% |        2995     19.26%     73.03% |        4195     26.97%    100.00%
system.ruby.L1Cache_Controller.Fwd_GETS::total        15553                      
system.ruby.L1Cache_Controller.Data      |         854     29.02%     29.02% |         523     17.77%     46.79% |        1033     35.10%     81.89% |         533     18.11%    100.00%
system.ruby.L1Cache_Controller.Data::total         2943                      
system.ruby.L1Cache_Controller.Data_Exclusive |     1491802     93.51%     93.51% |       62635      3.93%     97.44% |        3634      0.23%     97.66% |       37252      2.34%    100.00%
system.ruby.L1Cache_Controller.Data_Exclusive::total      1595323                      
system.ruby.L1Cache_Controller.DataS_fromL1 |         886      5.70%      5.70% |        3740     24.05%     29.74% |        4214     27.09%     56.84% |        6713     43.16%    100.00%
system.ruby.L1Cache_Controller.DataS_fromL1::total        15553                      
system.ruby.L1Cache_Controller.Data_all_Acks |      521106     78.13%     78.13% |       61185      9.17%     87.30% |       36356      5.45%     92.75% |       48334      7.25%    100.00%
system.ruby.L1Cache_Controller.Data_all_Acks::total       666981                      
system.ruby.L1Cache_Controller.Ack       |       13055     50.17%     50.17% |        4839     18.60%     68.77% |        3688     14.17%     82.94% |        4438     17.06%    100.00%
system.ruby.L1Cache_Controller.Ack::total        26020                      
system.ruby.L1Cache_Controller.Ack_all   |        5168     37.14%     37.14% |        3059     21.98%     59.12% |        2752     19.78%     78.89% |        2937     21.11%    100.00%
system.ruby.L1Cache_Controller.Ack_all::total        13916                      
system.ruby.L1Cache_Controller.WB_Ack    |     1965174     94.25%     94.25% |       73665      3.53%     97.79% |        3530      0.17%     97.96% |       42594      2.04%    100.00%
system.ruby.L1Cache_Controller.WB_Ack::total      2084963                      
system.ruby.L1Cache_Controller.NP.Load   |     1507549     92.30%     92.30% |       69944      4.28%     96.58% |       11162      0.68%     97.27% |       44632      2.73%    100.00%
system.ruby.L1Cache_Controller.NP.Load::total      1633287                      
system.ruby.L1Cache_Controller.NP.Ifetch |       30235     25.07%     25.07% |       36116     29.95%     55.02% |       23190     19.23%     74.25% |       31056     25.75%    100.00%
system.ruby.L1Cache_Controller.NP.Ifetch::total       120597                      
system.ruby.L1Cache_Controller.NP.Store  |      473878     94.68%     94.68% |       14403      2.88%     97.56% |        2663      0.53%     98.09% |        9565      1.91%    100.00%
system.ruby.L1Cache_Controller.NP.Store::total       500509                      
system.ruby.L1Cache_Controller.NP.Inv    |        2656     14.28%     14.28% |        6544     35.19%     49.47% |        3046     16.38%     65.85% |        6351     34.15%    100.00%
system.ruby.L1Cache_Controller.NP.Inv::total        18597                      
system.ruby.L1Cache_Controller.I.Load    |         346      2.35%      2.35% |        4637     31.47%     33.82% |        5168     35.08%     68.90% |        4583     31.10%    100.00%
system.ruby.L1Cache_Controller.I.Load::total        14734                      
system.ruby.L1Cache_Controller.I.Ifetch  |        2545     29.00%     29.00% |        2071     23.60%     52.59% |        2110     24.04%     76.63% |        2051     23.37%    100.00%
system.ruby.L1Cache_Controller.I.Ifetch::total         8777                      
system.ruby.L1Cache_Controller.I.Store   |          95      3.28%      3.28% |         912     31.49%     34.77% |         944     32.60%     67.37% |         945     32.63%    100.00%
system.ruby.L1Cache_Controller.I.Store::total         2896                      
system.ruby.L1Cache_Controller.I.L1_Replacement |        1368      7.22%      7.22% |        6095     32.17%     39.39% |        4849     25.59%     64.98% |        6636     35.02%    100.00%
system.ruby.L1Cache_Controller.I.L1_Replacement::total        18948                      
system.ruby.L1Cache_Controller.S.Load    |      523240     55.21%     55.21% |      143428     15.13%     70.35% |      118731     12.53%     82.88% |      162259     17.12%    100.00%
system.ruby.L1Cache_Controller.S.Load::total       947658                      
system.ruby.L1Cache_Controller.S.Ifetch  |  1861730174     99.26%     99.26% |     6598101      0.35%     99.61% |     2488727      0.13%     99.74% |     4792349      0.26%    100.00%
system.ruby.L1Cache_Controller.S.Ifetch::total   1875609351                      
system.ruby.L1Cache_Controller.S.Store   |        4314     39.31%     39.31% |        2536     23.11%     62.43% |        1719     15.67%     78.09% |        2404     21.91%    100.00%
system.ruby.L1Cache_Controller.S.Store::total        10973                      
system.ruby.L1Cache_Controller.S.Inv     |        4011     10.91%     10.91% |       10740     29.23%     40.14% |       11054     30.08%     70.22% |       10943     29.78%    100.00%
system.ruby.L1Cache_Controller.S.Inv::total        36748                      
system.ruby.L1Cache_Controller.S.L1_Replacement |       44946     30.00%     30.00% |       40703     27.17%     57.17% |       28154     18.79%     75.96% |       36023     24.04%    100.00%
system.ruby.L1Cache_Controller.S.L1_Replacement::total       149826                      
system.ruby.L1Cache_Controller.E.Load    |   293210688     99.86%     99.86% |      245436      0.08%     99.94% |       50726      0.02%     99.96% |      113423      0.04%    100.00%
system.ruby.L1Cache_Controller.E.Load::total    293620273                      
system.ruby.L1Cache_Controller.E.Store   |      438439     87.61%     87.61% |       37993      7.59%     95.20% |         811      0.16%     95.37% |       23195      4.63%    100.00%
system.ruby.L1Cache_Controller.E.Store::total       500438                      
system.ruby.L1Cache_Controller.E.Inv     |         105      4.07%      4.07% |         970     37.58%     41.65% |         633     24.53%     66.18% |         873     33.82%    100.00%
system.ruby.L1Cache_Controller.E.Inv::total         2581                      
system.ruby.L1Cache_Controller.E.L1_Replacement |     1052757     96.94%     96.94% |       22137      2.04%     98.98% |         836      0.08%     99.06% |       10243      0.94%    100.00%
system.ruby.L1Cache_Controller.E.L1_Replacement::total      1085973                      
system.ruby.L1Cache_Controller.E.Fwd_GETX |           9      2.23%      2.23% |         160     39.60%     41.83% |          46     11.39%     53.22% |         189     46.78%    100.00%
system.ruby.L1Cache_Controller.E.Fwd_GETX::total          404                      
system.ruby.L1Cache_Controller.E.Fwd_GETS |         298      5.16%      5.16% |        1831     31.73%     36.89% |        1307     22.65%     59.54% |        2335     40.46%    100.00%
system.ruby.L1Cache_Controller.E.Fwd_GETS::total         5771                      
system.ruby.L1Cache_Controller.M.Load    |    58465877     97.13%     97.13% |      875008      1.45%     98.59% |      350217      0.58%     99.17% |      499542      0.83%    100.00%
system.ruby.L1Cache_Controller.M.Load::total     60190644                      
system.ruby.L1Cache_Controller.M.Store   |    38661782     95.29%     95.29% |      863199      2.13%     97.42% |      384564      0.95%     98.37% |      662001      1.63%    100.00%
system.ruby.L1Cache_Controller.M.Store::total     40571546                      
system.ruby.L1Cache_Controller.M.Inv     |          94      1.85%      1.85% |        1823     35.90%     37.75% |        1412     27.81%     65.56% |        1749     34.44%    100.00%
system.ruby.L1Cache_Controller.M.Inv::total         5078                      
system.ruby.L1Cache_Controller.M.L1_Replacement |      912417     91.33%     91.33% |       51528      5.16%     96.49% |        2694      0.27%     96.76% |       32351      3.24%    100.00%
system.ruby.L1Cache_Controller.M.L1_Replacement::total       998990                      
system.ruby.L1Cache_Controller.M.Fwd_GETX |         179     17.79%     17.79% |         318     31.61%     49.40% |         285     28.33%     77.73% |         224     22.27%    100.00%
system.ruby.L1Cache_Controller.M.Fwd_GETX::total         1006                      
system.ruby.L1Cache_Controller.M.Fwd_GETS |        4137     42.29%     42.29% |        2097     21.44%     63.73% |        1688     17.26%     80.99% |        1860     19.01%    100.00%
system.ruby.L1Cache_Controller.M.Fwd_GETS::total         9782                      
system.ruby.L1Cache_Controller.IS.Data_Exclusive |     1491802     93.51%     93.51% |       62635      3.93%     97.44% |        3634      0.23%     97.66% |       37252      2.34%    100.00%
system.ruby.L1Cache_Controller.IS.Data_Exclusive::total      1595323                      
system.ruby.L1Cache_Controller.IS.DataS_fromL1 |         886      5.70%      5.70% |        3740     24.05%     29.74% |        4214     27.09%     56.84% |        6713     43.16%    100.00%
system.ruby.L1Cache_Controller.IS.DataS_fromL1::total        15553                      
system.ruby.L1Cache_Controller.IS.Data_all_Acks |       47987     28.82%     28.82% |       46393     27.86%     56.68% |       33782     20.29%     76.97% |       38357     23.03%    100.00%
system.ruby.L1Cache_Controller.IS.Data_all_Acks::total       166519                      
system.ruby.L1Cache_Controller.IM.Data   |         854     29.02%     29.02% |         523     17.77%     46.79% |        1033     35.10%     81.89% |         533     18.11%    100.00%
system.ruby.L1Cache_Controller.IM.Data::total         2943                      
system.ruby.L1Cache_Controller.IM.Data_all_Acks |      473119     94.54%     94.54% |       14792      2.96%     97.49% |        2574      0.51%     98.01% |        9977      1.99%    100.00%
system.ruby.L1Cache_Controller.IM.Data_all_Acks::total       500462                      
system.ruby.L1Cache_Controller.SM.Ack    |       13055     50.17%     50.17% |        4839     18.60%     68.77% |        3688     14.17%     82.94% |        4438     17.06%    100.00%
system.ruby.L1Cache_Controller.SM.Ack::total        26020                      
system.ruby.L1Cache_Controller.SM.Ack_all |        5168     37.14%     37.14% |        3059     21.98%     59.12% |        2752     19.78%     78.89% |        2937     21.11%    100.00%
system.ruby.L1Cache_Controller.SM.Ack_all::total        13916                      
system.ruby.L1Cache_Controller.M_I.WB_Ack |     1965174     94.25%     94.25% |       73665      3.53%     97.79% |        3530      0.17%     97.96% |       42594      2.04%    100.00%
system.ruby.L1Cache_Controller.M_I.WB_Ack::total      2084963                      
system.ruby.L2Cache_Controller.L1_GET_INSTR       129374      0.00%      0.00%
system.ruby.L2Cache_Controller.L1_GETS        1648038      0.00%      0.00%
system.ruby.L2Cache_Controller.L1_GETX         503405      0.00%      0.00%
system.ruby.L2Cache_Controller.L1_UPGRADE        10973      0.00%      0.00%
system.ruby.L2Cache_Controller.L1_PUTX        2084963      0.00%      0.00%
system.ruby.L2Cache_Controller.L2_Replacement       599118      0.00%      0.00%
system.ruby.L2Cache_Controller.L2_Replacement_clean       307146      0.00%      0.00%
system.ruby.L2Cache_Controller.Mem_Data        934923      0.00%      0.00%
system.ruby.L2Cache_Controller.Mem_Ack         906503      0.00%      0.00%
system.ruby.L2Cache_Controller.WB_Data          14860      0.00%      0.00%
system.ruby.L2Cache_Controller.WB_Data_clean         5771      0.00%      0.00%
system.ruby.L2Cache_Controller.Ack              14874      0.00%      0.00%
system.ruby.L2Cache_Controller.Ack_all          14089      0.00%      0.00%
system.ruby.L2Cache_Controller.Unblock          15553      0.00%      0.00%
system.ruby.L2Cache_Controller.Exclusive_Unblock      2109701      0.00%      0.00%
system.ruby.L2Cache_Controller.MEM_Inv            478      0.00%      0.00%
system.ruby.L2Cache_Controller.NP.L1_GET_INSTR        10054      0.00%      0.00%
system.ruby.L2Cache_Controller.NP.L1_GETS       490683      0.00%      0.00%
system.ruby.L2Cache_Controller.NP.L1_GETX       434186      0.00%      0.00%
system.ruby.L2Cache_Controller.SS.L1_GET_INSTR       119312      0.00%      0.00%
system.ruby.L2Cache_Controller.SS.L1_GETS        37145      0.00%      0.00%
system.ruby.L2Cache_Controller.SS.L1_GETX         2943      0.00%      0.00%
system.ruby.L2Cache_Controller.SS.L1_UPGRADE        10973      0.00%      0.00%
system.ruby.L2Cache_Controller.SS.L2_Replacement          550      0.00%      0.00%
system.ruby.L2Cache_Controller.SS.L2_Replacement_clean        10958      0.00%      0.00%
system.ruby.L2Cache_Controller.M.L1_GET_INSTR            8      0.00%      0.00%
system.ruby.L2Cache_Controller.M.L1_GETS      1104640      0.00%      0.00%
system.ruby.L2Cache_Controller.M.L1_GETX        64866      0.00%      0.00%
system.ruby.L2Cache_Controller.M.L2_Replacement       596988      0.00%      0.00%
system.ruby.L2Cache_Controller.M.L2_Replacement_clean       290201      0.00%      0.00%
system.ruby.L2Cache_Controller.M.MEM_Inv          147      0.00%      0.00%
system.ruby.L2Cache_Controller.MT.L1_GETS        15553      0.00%      0.00%
system.ruby.L2Cache_Controller.MT.L1_GETX         1410      0.00%      0.00%
system.ruby.L2Cache_Controller.MT.L1_PUTX      2084963      0.00%      0.00%
system.ruby.L2Cache_Controller.MT.L2_Replacement         1580      0.00%      0.00%
system.ruby.L2Cache_Controller.MT.L2_Replacement_clean         5987      0.00%      0.00%
system.ruby.L2Cache_Controller.MT.MEM_Inv           92      0.00%      0.00%
system.ruby.L2Cache_Controller.M_I.L1_GETS            3      0.00%      0.00%
system.ruby.L2Cache_Controller.M_I.Mem_Ack       906503      0.00%      0.00%
system.ruby.L2Cache_Controller.M_I.MEM_Inv          147      0.00%      0.00%
system.ruby.L2Cache_Controller.MT_I.WB_Data         1343      0.00%      0.00%
system.ruby.L2Cache_Controller.MT_I.Ack_all          329      0.00%      0.00%
system.ruby.L2Cache_Controller.MT_I.MEM_Inv           92      0.00%      0.00%
system.ruby.L2Cache_Controller.MCT_I.WB_Data         3735      0.00%      0.00%
system.ruby.L2Cache_Controller.MCT_I.Ack_all         2252      0.00%      0.00%
system.ruby.L2Cache_Controller.I_I.Ack          14144      0.00%      0.00%
system.ruby.L2Cache_Controller.I_I.Ack_all        10958      0.00%      0.00%
system.ruby.L2Cache_Controller.S_I.Ack            730      0.00%      0.00%
system.ruby.L2Cache_Controller.S_I.Ack_all          550      0.00%      0.00%
system.ruby.L2Cache_Controller.ISS.Mem_Data       490683      0.00%      0.00%
system.ruby.L2Cache_Controller.IS.Mem_Data        10054      0.00%      0.00%
system.ruby.L2Cache_Controller.IM.Mem_Data       434186      0.00%      0.00%
system.ruby.L2Cache_Controller.SS_MB.L1_GETS           12      0.00%      0.00%
system.ruby.L2Cache_Controller.SS_MB.Exclusive_Unblock        13916      0.00%      0.00%
system.ruby.L2Cache_Controller.MT_MB.L1_GETS            1      0.00%      0.00%
system.ruby.L2Cache_Controller.MT_MB.Exclusive_Unblock      2095785      0.00%      0.00%
system.ruby.L2Cache_Controller.MT_IIB.L1_GETS            1      0.00%      0.00%
system.ruby.L2Cache_Controller.MT_IIB.WB_Data         9777      0.00%      0.00%
system.ruby.L2Cache_Controller.MT_IIB.WB_Data_clean         5765      0.00%      0.00%
system.ruby.L2Cache_Controller.MT_IIB.Unblock           11      0.00%      0.00%
system.ruby.L2Cache_Controller.MT_IB.WB_Data            5      0.00%      0.00%
system.ruby.L2Cache_Controller.MT_IB.WB_Data_clean            6      0.00%      0.00%
system.ruby.L2Cache_Controller.MT_SB.Unblock        15542      0.00%      0.00%

---------- End Simulation Statistics   ----------
