
---------- Begin Simulation Statistics ----------
sim_seconds                                  3.289725                       # Number of seconds simulated
sim_ticks                                3289725098000                       # Number of ticks simulated
final_tick                               55156305773501                       # Number of ticks from beginning of simulation (restored from checkpoints and never reset)
sim_freq                                 1000000000000                       # Frequency of simulated ticks
host_inst_rate                                 115588                       # Simulator instruction rate (inst/s)
host_op_rate                                   193757                       # Simulator op (including micro ops) rate (op/s)
host_tick_rate                              247825463                       # Simulator tick rate (ticks/s)
host_mem_usage                                1848196                       # Number of bytes of host memory used
host_seconds                                 13274.36                       # Real time elapsed on the host
sim_insts                                  1534358313                       # Number of instructions simulated
sim_ops                                    2571994130                       # Number of ops (including micro ops) simulated
system.voltage_domain.voltage                       1                       # Voltage in Volts
system.clk_domain.clock                          1000                       # Clock period in ticks
system.mem_ctrls.bytes_read::ruby.dir_cntrl0     10312576                       # Number of bytes read from this memory
system.mem_ctrls.bytes_read::total           10312576                       # Number of bytes read from this memory
system.mem_ctrls.bytes_written::ruby.dir_cntrl0      1194816                       # Number of bytes written to this memory
system.mem_ctrls.bytes_written::total         1194816                       # Number of bytes written to this memory
system.mem_ctrls.num_reads::ruby.dir_cntrl0       161134                       # Number of read requests responded to by this memory
system.mem_ctrls.num_reads::total              161134                       # Number of read requests responded to by this memory
system.mem_ctrls.num_writes::ruby.dir_cntrl0        18669                       # Number of write requests responded to by this memory
system.mem_ctrls.num_writes::total              18669                       # Number of write requests responded to by this memory
system.mem_ctrls.bw_read::ruby.dir_cntrl0      3134784                       # Total read bandwidth from this memory (bytes/s)
system.mem_ctrls.bw_read::total               3134784                       # Total read bandwidth from this memory (bytes/s)
system.mem_ctrls.bw_write::ruby.dir_cntrl0       363196                       # Write bandwidth from this memory (bytes/s)
system.mem_ctrls.bw_write::total               363196                       # Write bandwidth from this memory (bytes/s)
system.mem_ctrls.bw_total::ruby.dir_cntrl0      3497980                       # Total bandwidth to/from this memory (bytes/s)
system.mem_ctrls.bw_total::total              3497980                       # Total bandwidth to/from this memory (bytes/s)
system.mem_ctrls.readReqs                      161134                       # Number of read requests accepted
system.mem_ctrls.writeReqs                      18669                       # Number of write requests accepted
system.mem_ctrls.readBursts                    161134                       # Number of DRAM read bursts, including those serviced by the write queue
system.mem_ctrls.writeBursts                    18669                       # Number of DRAM write bursts, including those merged in the write queue
system.mem_ctrls.bytesReadDRAM               10242624                       # Total number of bytes read from DRAM
system.mem_ctrls.bytesReadWrQ                   69952                       # Total number of bytes read from write queue
system.mem_ctrls.bytesWritten                 1185024                       # Total number of bytes written to DRAM
system.mem_ctrls.bytesReadSys                10312576                       # Total read bytes from the system interface side
system.mem_ctrls.bytesWrittenSys              1194816                       # Total written bytes from the system interface side
system.mem_ctrls.servicedByWrQ                   1093                       # Number of DRAM read bursts serviced by the write queue
system.mem_ctrls.mergedWrBursts                   153                       # Number of DRAM write bursts merged with an existing one
system.mem_ctrls.neitherReadNorWriteReqs            0                       # Number of requests that are neither read nor write
system.mem_ctrls.perBankRdBursts::0             10349                       # Per bank write bursts
system.mem_ctrls.perBankRdBursts::1             10497                       # Per bank write bursts
system.mem_ctrls.perBankRdBursts::2             10529                       # Per bank write bursts
system.mem_ctrls.perBankRdBursts::3              9354                       # Per bank write bursts
system.mem_ctrls.perBankRdBursts::4              9754                       # Per bank write bursts
system.mem_ctrls.perBankRdBursts::5              9630                       # Per bank write bursts
system.mem_ctrls.perBankRdBursts::6             10032                       # Per bank write bursts
system.mem_ctrls.perBankRdBursts::7             10272                       # Per bank write bursts
system.mem_ctrls.perBankRdBursts::8             10137                       # Per bank write bursts
system.mem_ctrls.perBankRdBursts::9             10269                       # Per bank write bursts
system.mem_ctrls.perBankRdBursts::10             9814                       # Per bank write bursts
system.mem_ctrls.perBankRdBursts::11             9378                       # Per bank write bursts
system.mem_ctrls.perBankRdBursts::12             9274                       # Per bank write bursts
system.mem_ctrls.perBankRdBursts::13            10086                       # Per bank write bursts
system.mem_ctrls.perBankRdBursts::14            10562                       # Per bank write bursts
system.mem_ctrls.perBankRdBursts::15            10104                       # Per bank write bursts
system.mem_ctrls.perBankWrBursts::0              1431                       # Per bank write bursts
system.mem_ctrls.perBankWrBursts::1              1378                       # Per bank write bursts
system.mem_ctrls.perBankWrBursts::2              1279                       # Per bank write bursts
system.mem_ctrls.perBankWrBursts::3               694                       # Per bank write bursts
system.mem_ctrls.perBankWrBursts::4              1210                       # Per bank write bursts
system.mem_ctrls.perBankWrBursts::5              1195                       # Per bank write bursts
system.mem_ctrls.perBankWrBursts::6              1300                       # Per bank write bursts
system.mem_ctrls.perBankWrBursts::7              1163                       # Per bank write bursts
system.mem_ctrls.perBankWrBursts::8              1349                       # Per bank write bursts
system.mem_ctrls.perBankWrBursts::9              1148                       # Per bank write bursts
system.mem_ctrls.perBankWrBursts::10             1119                       # Per bank write bursts
system.mem_ctrls.perBankWrBursts::11              849                       # Per bank write bursts
system.mem_ctrls.perBankWrBursts::12              976                       # Per bank write bursts
system.mem_ctrls.perBankWrBursts::13              909                       # Per bank write bursts
system.mem_ctrls.perBankWrBursts::14             1361                       # Per bank write bursts
system.mem_ctrls.perBankWrBursts::15             1155                       # Per bank write bursts
system.mem_ctrls.numRdRetry                         0                       # Number of times read queue was full causing retry
system.mem_ctrls.numWrRetry                         0                       # Number of times write queue was full causing retry
system.mem_ctrls.totGap                  3289725023000                       # Total gap between requests
system.mem_ctrls.readPktSize::0                     0                       # Read request sizes (log2)
system.mem_ctrls.readPktSize::1                     0                       # Read request sizes (log2)
system.mem_ctrls.readPktSize::2                     0                       # Read request sizes (log2)
system.mem_ctrls.readPktSize::3                     0                       # Read request sizes (log2)
system.mem_ctrls.readPktSize::4                     0                       # Read request sizes (log2)
system.mem_ctrls.readPktSize::5                     0                       # Read request sizes (log2)
system.mem_ctrls.readPktSize::6                161134                       # Read request sizes (log2)
system.mem_ctrls.writePktSize::0                    0                       # Write request sizes (log2)
system.mem_ctrls.writePktSize::1                    0                       # Write request sizes (log2)
system.mem_ctrls.writePktSize::2                    0                       # Write request sizes (log2)
system.mem_ctrls.writePktSize::3                    0                       # Write request sizes (log2)
system.mem_ctrls.writePktSize::4                    0                       # Write request sizes (log2)
system.mem_ctrls.writePktSize::5                    0                       # Write request sizes (log2)
system.mem_ctrls.writePktSize::6                18669                       # Write request sizes (log2)
system.mem_ctrls.rdQLenPdf::0                  159406                       # What read queue length does an incoming req see
system.mem_ctrls.rdQLenPdf::1                     625                       # What read queue length does an incoming req see
system.mem_ctrls.rdQLenPdf::2                      10                       # What read queue length does an incoming req see
system.mem_ctrls.rdQLenPdf::3                       0                       # What read queue length does an incoming req see
system.mem_ctrls.rdQLenPdf::4                       0                       # What read queue length does an incoming req see
system.mem_ctrls.rdQLenPdf::5                       0                       # What read queue length does an incoming req see
system.mem_ctrls.rdQLenPdf::6                       0                       # What read queue length does an incoming req see
system.mem_ctrls.rdQLenPdf::7                       0                       # What read queue length does an incoming req see
system.mem_ctrls.rdQLenPdf::8                       0                       # What read queue length does an incoming req see
system.mem_ctrls.rdQLenPdf::9                       0                       # What read queue length does an incoming req see
system.mem_ctrls.rdQLenPdf::10                      0                       # What read queue length does an incoming req see
system.mem_ctrls.rdQLenPdf::11                      0                       # What read queue length does an incoming req see
system.mem_ctrls.rdQLenPdf::12                      0                       # What read queue length does an incoming req see
system.mem_ctrls.rdQLenPdf::13                      0                       # What read queue length does an incoming req see
system.mem_ctrls.rdQLenPdf::14                      0                       # What read queue length does an incoming req see
system.mem_ctrls.rdQLenPdf::15                      0                       # What read queue length does an incoming req see
system.mem_ctrls.rdQLenPdf::16                      0                       # What read queue length does an incoming req see
system.mem_ctrls.rdQLenPdf::17                      0                       # What read queue length does an incoming req see
system.mem_ctrls.rdQLenPdf::18                      0                       # What read queue length does an incoming req see
system.mem_ctrls.rdQLenPdf::19                      0                       # What read queue length does an incoming req see
system.mem_ctrls.rdQLenPdf::20                      0                       # What read queue length does an incoming req see
system.mem_ctrls.rdQLenPdf::21                      0                       # What read queue length does an incoming req see
system.mem_ctrls.rdQLenPdf::22                      0                       # What read queue length does an incoming req see
system.mem_ctrls.rdQLenPdf::23                      0                       # What read queue length does an incoming req see
system.mem_ctrls.rdQLenPdf::24                      0                       # What read queue length does an incoming req see
system.mem_ctrls.rdQLenPdf::25                      0                       # What read queue length does an incoming req see
system.mem_ctrls.rdQLenPdf::26                      0                       # What read queue length does an incoming req see
system.mem_ctrls.rdQLenPdf::27                      0                       # What read queue length does an incoming req see
system.mem_ctrls.rdQLenPdf::28                      0                       # What read queue length does an incoming req see
system.mem_ctrls.rdQLenPdf::29                      0                       # What read queue length does an incoming req see
system.mem_ctrls.rdQLenPdf::30                      0                       # What read queue length does an incoming req see
system.mem_ctrls.rdQLenPdf::31                      0                       # What read queue length does an incoming req see
system.mem_ctrls.wrQLenPdf::0                       0                       # What write queue length does an incoming req see
system.mem_ctrls.wrQLenPdf::1                       0                       # What write queue length does an incoming req see
system.mem_ctrls.wrQLenPdf::2                       0                       # What write queue length does an incoming req see
system.mem_ctrls.wrQLenPdf::3                       0                       # What write queue length does an incoming req see
system.mem_ctrls.wrQLenPdf::4                       0                       # What write queue length does an incoming req see
system.mem_ctrls.wrQLenPdf::5                       0                       # What write queue length does an incoming req see
system.mem_ctrls.wrQLenPdf::6                       0                       # What write queue length does an incoming req see
system.mem_ctrls.wrQLenPdf::7                       0                       # What write queue length does an incoming req see
system.mem_ctrls.wrQLenPdf::8                       0                       # What write queue length does an incoming req see
system.mem_ctrls.wrQLenPdf::9                       0                       # What write queue length does an incoming req see
system.mem_ctrls.wrQLenPdf::10                      0                       # What write queue length does an incoming req see
system.mem_ctrls.wrQLenPdf::11                      0                       # What write queue length does an incoming req see
system.mem_ctrls.wrQLenPdf::12                      0                       # What write queue length does an incoming req see
system.mem_ctrls.wrQLenPdf::13                      0                       # What write queue length does an incoming req see
system.mem_ctrls.wrQLenPdf::14                      0                       # What write queue length does an incoming req see
system.mem_ctrls.wrQLenPdf::15                    217                       # What write queue length does an incoming req see
system.mem_ctrls.wrQLenPdf::16                    263                       # What write queue length does an incoming req see
system.mem_ctrls.wrQLenPdf::17                   1117                       # What write queue length does an incoming req see
system.mem_ctrls.wrQLenPdf::18                   1136                       # What write queue length does an incoming req see
system.mem_ctrls.wrQLenPdf::19                   1119                       # What write queue length does an incoming req see
system.mem_ctrls.wrQLenPdf::20                   1161                       # What write queue length does an incoming req see
system.mem_ctrls.wrQLenPdf::21                   1157                       # What write queue length does an incoming req see
system.mem_ctrls.wrQLenPdf::22                   1125                       # What write queue length does an incoming req see
system.mem_ctrls.wrQLenPdf::23                   1162                       # What write queue length does an incoming req see
system.mem_ctrls.wrQLenPdf::24                   1152                       # What write queue length does an incoming req see
system.mem_ctrls.wrQLenPdf::25                   1115                       # What write queue length does an incoming req see
system.mem_ctrls.wrQLenPdf::26                   1121                       # What write queue length does an incoming req see
system.mem_ctrls.wrQLenPdf::27                   1122                       # What write queue length does an incoming req see
system.mem_ctrls.wrQLenPdf::28                   1132                       # What write queue length does an incoming req see
system.mem_ctrls.wrQLenPdf::29                   1095                       # What write queue length does an incoming req see
system.mem_ctrls.wrQLenPdf::30                   1096                       # What write queue length does an incoming req see
system.mem_ctrls.wrQLenPdf::31                   1097                       # What write queue length does an incoming req see
system.mem_ctrls.wrQLenPdf::32                   1088                       # What write queue length does an incoming req see
system.mem_ctrls.wrQLenPdf::33                      8                       # What write queue length does an incoming req see
system.mem_ctrls.wrQLenPdf::34                      6                       # What write queue length does an incoming req see
system.mem_ctrls.wrQLenPdf::35                      4                       # What write queue length does an incoming req see
system.mem_ctrls.wrQLenPdf::36                      4                       # What write queue length does an incoming req see
system.mem_ctrls.wrQLenPdf::37                      4                       # What write queue length does an incoming req see
system.mem_ctrls.wrQLenPdf::38                      3                       # What write queue length does an incoming req see
system.mem_ctrls.wrQLenPdf::39                      4                       # What write queue length does an incoming req see
system.mem_ctrls.wrQLenPdf::40                      2                       # What write queue length does an incoming req see
system.mem_ctrls.wrQLenPdf::41                      2                       # What write queue length does an incoming req see
system.mem_ctrls.wrQLenPdf::42                      2                       # What write queue length does an incoming req see
system.mem_ctrls.wrQLenPdf::43                      1                       # What write queue length does an incoming req see
system.mem_ctrls.wrQLenPdf::44                      1                       # What write queue length does an incoming req see
system.mem_ctrls.wrQLenPdf::45                      0                       # What write queue length does an incoming req see
system.mem_ctrls.wrQLenPdf::46                      0                       # What write queue length does an incoming req see
system.mem_ctrls.wrQLenPdf::47                      0                       # What write queue length does an incoming req see
system.mem_ctrls.wrQLenPdf::48                      0                       # What write queue length does an incoming req see
system.mem_ctrls.wrQLenPdf::49                      0                       # What write queue length does an incoming req see
system.mem_ctrls.wrQLenPdf::50                      0                       # What write queue length does an incoming req see
system.mem_ctrls.wrQLenPdf::51                      0                       # What write queue length does an incoming req see
system.mem_ctrls.wrQLenPdf::52                      0                       # What write queue length does an incoming req see
system.mem_ctrls.wrQLenPdf::53                      0                       # What write queue length does an incoming req see
system.mem_ctrls.wrQLenPdf::54                      0                       # What write queue length does an incoming req see
system.mem_ctrls.wrQLenPdf::55                      0                       # What write queue length does an incoming req see
system.mem_ctrls.wrQLenPdf::56                      0                       # What write queue length does an incoming req see
system.mem_ctrls.wrQLenPdf::57                      0                       # What write queue length does an incoming req see
system.mem_ctrls.wrQLenPdf::58                      0                       # What write queue length does an incoming req see
system.mem_ctrls.wrQLenPdf::59                      0                       # What write queue length does an incoming req see
system.mem_ctrls.wrQLenPdf::60                      0                       # What write queue length does an incoming req see
system.mem_ctrls.wrQLenPdf::61                      0                       # What write queue length does an incoming req see
system.mem_ctrls.wrQLenPdf::62                      0                       # What write queue length does an incoming req see
system.mem_ctrls.wrQLenPdf::63                      0                       # What write queue length does an incoming req see
system.mem_ctrls.bytesPerActivate::samples        42833                       # Bytes accessed per row activation
system.mem_ctrls.bytesPerActivate::mean    266.801391                       # Bytes accessed per row activation
system.mem_ctrls.bytesPerActivate::gmean   143.051613                       # Bytes accessed per row activation
system.mem_ctrls.bytesPerActivate::stdev   339.194089                       # Bytes accessed per row activation
system.mem_ctrls.bytesPerActivate::0-127        22133     51.67%     51.67% # Bytes accessed per row activation
system.mem_ctrls.bytesPerActivate::128-255         9119     21.29%     72.96% # Bytes accessed per row activation
system.mem_ctrls.bytesPerActivate::256-383         2479      5.79%     78.75% # Bytes accessed per row activation
system.mem_ctrls.bytesPerActivate::384-511         1182      2.76%     81.51% # Bytes accessed per row activation
system.mem_ctrls.bytesPerActivate::512-639          754      1.76%     83.27% # Bytes accessed per row activation
system.mem_ctrls.bytesPerActivate::640-767          415      0.97%     84.24% # Bytes accessed per row activation
system.mem_ctrls.bytesPerActivate::768-895          340      0.79%     85.03% # Bytes accessed per row activation
system.mem_ctrls.bytesPerActivate::896-1023          322      0.75%     85.78% # Bytes accessed per row activation
system.mem_ctrls.bytesPerActivate::1024-1151         6089     14.22%    100.00% # Bytes accessed per row activation
system.mem_ctrls.bytesPerActivate::total        42833                       # Bytes accessed per row activation
system.mem_ctrls.rdPerTurnAround::samples         1083                       # Reads before turning the bus around for writes
system.mem_ctrls.rdPerTurnAround::mean     147.873500                       # Reads before turning the bus around for writes
system.mem_ctrls.rdPerTurnAround::stdev   1595.214180                       # Reads before turning the bus around for writes
system.mem_ctrls.rdPerTurnAround::0-2047         1078     99.54%     99.54% # Reads before turning the bus around for writes
system.mem_ctrls.rdPerTurnAround::2048-4095            1      0.09%     99.63% # Reads before turning the bus around for writes
system.mem_ctrls.rdPerTurnAround::4096-6143            1      0.09%     99.72% # Reads before turning the bus around for writes
system.mem_ctrls.rdPerTurnAround::16384-18431            1      0.09%     99.82% # Reads before turning the bus around for writes
system.mem_ctrls.rdPerTurnAround::32768-34815            1      0.09%     99.91% # Reads before turning the bus around for writes
system.mem_ctrls.rdPerTurnAround::36864-38911            1      0.09%    100.00% # Reads before turning the bus around for writes
system.mem_ctrls.rdPerTurnAround::total          1083                       # Reads before turning the bus around for writes
system.mem_ctrls.wrPerTurnAround::samples         1083                       # Writes before turning the bus around for reads
system.mem_ctrls.wrPerTurnAround::mean      17.096953                       # Writes before turning the bus around for reads
system.mem_ctrls.wrPerTurnAround::gmean     16.923642                       # Writes before turning the bus around for reads
system.mem_ctrls.wrPerTurnAround::stdev      2.828561                       # Writes before turning the bus around for reads
system.mem_ctrls.wrPerTurnAround::16              854     78.86%     78.86% # Writes before turning the bus around for reads
system.mem_ctrls.wrPerTurnAround::17                5      0.46%     79.32% # Writes before turning the bus around for reads
system.mem_ctrls.wrPerTurnAround::18               95      8.77%     88.09% # Writes before turning the bus around for reads
system.mem_ctrls.wrPerTurnAround::19                5      0.46%     88.55% # Writes before turning the bus around for reads
system.mem_ctrls.wrPerTurnAround::20                2      0.18%     88.73% # Writes before turning the bus around for reads
system.mem_ctrls.wrPerTurnAround::21               40      3.69%     92.43% # Writes before turning the bus around for reads
system.mem_ctrls.wrPerTurnAround::22               12      1.11%     93.54% # Writes before turning the bus around for reads
system.mem_ctrls.wrPerTurnAround::23                6      0.55%     94.09% # Writes before turning the bus around for reads
system.mem_ctrls.wrPerTurnAround::24               34      3.14%     97.23% # Writes before turning the bus around for reads
system.mem_ctrls.wrPerTurnAround::25                4      0.37%     97.60% # Writes before turning the bus around for reads
system.mem_ctrls.wrPerTurnAround::26                1      0.09%     97.69% # Writes before turning the bus around for reads
system.mem_ctrls.wrPerTurnAround::27                1      0.09%     97.78% # Writes before turning the bus around for reads
system.mem_ctrls.wrPerTurnAround::28               19      1.75%     99.54% # Writes before turning the bus around for reads
system.mem_ctrls.wrPerTurnAround::29                3      0.28%     99.82% # Writes before turning the bus around for reads
system.mem_ctrls.wrPerTurnAround::44                1      0.09%     99.91% # Writes before turning the bus around for reads
system.mem_ctrls.wrPerTurnAround::48                1      0.09%    100.00% # Writes before turning the bus around for reads
system.mem_ctrls.wrPerTurnAround::total          1083                       # Writes before turning the bus around for reads
system.mem_ctrls.totQLat                   1010588995                       # Total ticks spent queuing
system.mem_ctrls.totMemAccLat              4011357745                       # Total ticks spent from burst creation until serviced by the DRAM
system.mem_ctrls.totBusLat                  800205000                       # Total ticks spent in databus transfers
system.mem_ctrls.avgQLat                      6314.56                       # Average queueing delay per DRAM burst
system.mem_ctrls.avgBusLat                    5000.00                       # Average bus latency per DRAM burst
system.mem_ctrls.avgMemAccLat                25064.56                       # Average memory access latency per DRAM burst
system.mem_ctrls.avgRdBW                         3.11                       # Average DRAM read bandwidth in MiByte/s
system.mem_ctrls.avgWrBW                         0.36                       # Average achieved write bandwidth in MiByte/s
system.mem_ctrls.avgRdBWSys                      3.13                       # Average system read bandwidth in MiByte/s
system.mem_ctrls.avgWrBWSys                      0.36                       # Average system write bandwidth in MiByte/s
system.mem_ctrls.peakBW                      12800.00                       # Theoretical peak bandwidth in MiByte/s
system.mem_ctrls.busUtil                         0.03                       # Data bus utilization in percentage
system.mem_ctrls.busUtilRead                     0.02                       # Data bus utilization in percentage for reads
system.mem_ctrls.busUtilWrite                    0.00                       # Data bus utilization in percentage for writes
system.mem_ctrls.avgRdQLen                       1.00                       # Average read queue length when enqueuing
system.mem_ctrls.avgWrQLen                      25.34                       # Average write queue length when enqueuing
system.mem_ctrls.readRowHits                   126759                       # Number of row buffer hits during reads
system.mem_ctrls.writeRowHits                    8966                       # Number of row buffer hits during writes
system.mem_ctrls.readRowHitRate                 79.20                       # Row buffer hit rate for reads
system.mem_ctrls.writeRowHitRate                48.42                       # Row buffer hit rate for writes
system.mem_ctrls.avgGap                   18296274.38                       # Average gap between requests
system.mem_ctrls.pageHitRate                    76.01                       # Row buffer hit rate, read and write combined
system.mem_ctrls_0.actEnergy                183602160                       # Energy for activate commands per rank (pJ)
system.mem_ctrls_0.preEnergy                100179750                       # Energy for precharge commands per rank (pJ)
system.mem_ctrls_0.readEnergy               691337400                       # Energy for read commands per rank (pJ)
system.mem_ctrls_0.writeEnergy               62577360                       # Energy for write commands per rank (pJ)
system.mem_ctrls_0.refreshEnergy         215141730960                       # Energy for refresh commands per rank (pJ)
system.mem_ctrls_0.actBackEnergy          98005088925                       # Energy for active background per rank (pJ)
system.mem_ctrls_0.preBackEnergy         1890372571500                       # Energy for precharge background per rank (pJ)
system.mem_ctrls_0.totalEnergy           2204557088055                       # Total energy per rank (pJ)
system.mem_ctrls_0.averagePower            669.284106                       # Core power per rank (mW)
system.mem_ctrls_0.memoryStateTime::IDLE 3142927511750                       # Time in different power states
system.mem_ctrls_0.memoryStateTime::REF  109851300000                       # Time in different power states
system.mem_ctrls_0.memoryStateTime::PRE_PDN            0                       # Time in different power states
system.mem_ctrls_0.memoryStateTime::ACT   36952962500                       # Time in different power states
system.mem_ctrls_0.memoryStateTime::ACT_PDN            0                       # Time in different power states
system.mem_ctrls_1.actEnergy                170515800                       # Energy for activate commands per rank (pJ)
system.mem_ctrls_1.preEnergy                 93039375                       # Energy for precharge commands per rank (pJ)
system.mem_ctrls_1.readEnergy               686173800                       # Energy for read commands per rank (pJ)
system.mem_ctrls_1.writeEnergy               57510000                       # Energy for write commands per rank (pJ)
system.mem_ctrls_1.refreshEnergy         215141730960                       # Energy for refresh commands per rank (pJ)
system.mem_ctrls_1.actBackEnergy          95215836105                       # Energy for active background per rank (pJ)
system.mem_ctrls_1.preBackEnergy         1892819284500                       # Energy for precharge background per rank (pJ)
system.mem_ctrls_1.totalEnergy           2204184090540                       # Total energy per rank (pJ)
system.mem_ctrls_1.averagePower            669.170867                       # Core power per rank (mW)
system.mem_ctrls_1.memoryStateTime::IDLE 3146981121000                       # Time in different power states
system.mem_ctrls_1.memoryStateTime::REF  109851300000                       # Time in different power states
system.mem_ctrls_1.memoryStateTime::PRE_PDN            0                       # Time in different power states
system.mem_ctrls_1.memoryStateTime::ACT   32897135250                       # Time in different power states
system.mem_ctrls_1.memoryStateTime::ACT_PDN            0                       # Time in different power states
system.cpu_voltage_domain.voltage                   1                       # Voltage in Volts
system.cpu_clk_domain.clock                       500                       # Clock period in ticks
system.cpu0.apic_clk_domain.clock                8000                       # Clock period in ticks
system.cpu0.numCycles                      6584274750                       # number of cpu cycles simulated
system.cpu0.numWorkItemsStarted                     0                       # number of work items this cpu started
system.cpu0.numWorkItemsCompleted                   0                       # number of work items this cpu completed
system.cpu0.kern.inst.arm                           0                       # number of arm instructions executed
system.cpu0.kern.inst.quiesce                       0                       # number of quiesce instructions executed
system.cpu0.committedInsts                    3205034                       # Number of instructions committed
system.cpu0.committedOps                      6854194                       # Number of ops (including micro ops) committed
system.cpu0.num_int_alu_accesses              6724188                       # Number of integer alu accesses
system.cpu0.num_fp_alu_accesses                   165                       # Number of float alu accesses
system.cpu0.num_func_calls                     192514                       # number of times a function call or return occured
system.cpu0.num_conditional_control_insts       524931                       # number of instructions that are conditional controls
system.cpu0.num_int_insts                     6724188                       # number of integer instructions
system.cpu0.num_fp_insts                          165                       # number of float instructions
system.cpu0.num_int_register_reads           13337020                       # number of times the integer registers were read
system.cpu0.num_int_register_writes           5528076                       # number of times the integer registers were written
system.cpu0.num_fp_register_reads                 273                       # number of times the floating registers were read
system.cpu0.num_fp_register_writes                133                       # number of times the floating registers were written
system.cpu0.num_cc_register_reads             4096205                       # number of times the CC registers were read
system.cpu0.num_cc_register_writes            2151985                       # number of times the CC registers were written
system.cpu0.num_mem_refs                      1514690                       # number of memory refs
system.cpu0.num_load_insts                     940692                       # Number of load instructions
system.cpu0.num_store_insts                    573998                       # Number of store instructions
system.cpu0.num_idle_cycles              6569477147.271393                       # Number of idle cycles
system.cpu0.num_busy_cycles              14797602.728607                       # Number of busy cycles
system.cpu0.not_idle_fraction                0.002247                       # Percentage of non-idle cycles
system.cpu0.idle_fraction                    0.997753                       # Percentage of idle cycles
system.cpu0.Branches                           774143                       # Number of branches fetched
system.cpu0.op_class::No_OpClass                96839      1.41%      1.41% # Class of executed instruction
system.cpu0.op_class::IntAlu                  5197028     75.82%     77.24% # Class of executed instruction
system.cpu0.op_class::IntMult                   14509      0.21%     77.45% # Class of executed instruction
system.cpu0.op_class::IntDiv                    31031      0.45%     77.90% # Class of executed instruction
system.cpu0.op_class::FloatAdd                    122      0.00%     77.90% # Class of executed instruction
system.cpu0.op_class::FloatCmp                      0      0.00%     77.90% # Class of executed instruction
system.cpu0.op_class::FloatCvt                      0      0.00%     77.90% # Class of executed instruction
system.cpu0.op_class::FloatMult                     0      0.00%     77.90% # Class of executed instruction
system.cpu0.op_class::FloatDiv                      0      0.00%     77.90% # Class of executed instruction
system.cpu0.op_class::FloatSqrt                     0      0.00%     77.90% # Class of executed instruction
system.cpu0.op_class::SimdAdd                       0      0.00%     77.90% # Class of executed instruction
system.cpu0.op_class::SimdAddAcc                    0      0.00%     77.90% # Class of executed instruction
system.cpu0.op_class::SimdAlu                       0      0.00%     77.90% # Class of executed instruction
system.cpu0.op_class::SimdCmp                       0      0.00%     77.90% # Class of executed instruction
system.cpu0.op_class::SimdCvt                       0      0.00%     77.90% # Class of executed instruction
system.cpu0.op_class::SimdMisc                      0      0.00%     77.90% # Class of executed instruction
system.cpu0.op_class::SimdMult                      0      0.00%     77.90% # Class of executed instruction
system.cpu0.op_class::SimdMultAcc                   0      0.00%     77.90% # Class of executed instruction
system.cpu0.op_class::SimdShift                     0      0.00%     77.90% # Class of executed instruction
system.cpu0.op_class::SimdShiftAcc                  0      0.00%     77.90% # Class of executed instruction
system.cpu0.op_class::SimdSqrt                      0      0.00%     77.90% # Class of executed instruction
system.cpu0.op_class::SimdFloatAdd                  0      0.00%     77.90% # Class of executed instruction
system.cpu0.op_class::SimdFloatAlu                  0      0.00%     77.90% # Class of executed instruction
system.cpu0.op_class::SimdFloatCmp                  0      0.00%     77.90% # Class of executed instruction
system.cpu0.op_class::SimdFloatCvt                  0      0.00%     77.90% # Class of executed instruction
system.cpu0.op_class::SimdFloatDiv                  0      0.00%     77.90% # Class of executed instruction
system.cpu0.op_class::SimdFloatMisc                 0      0.00%     77.90% # Class of executed instruction
system.cpu0.op_class::SimdFloatMult                 0      0.00%     77.90% # Class of executed instruction
system.cpu0.op_class::SimdFloatMultAcc              0      0.00%     77.90% # Class of executed instruction
system.cpu0.op_class::SimdFloatSqrt                 0      0.00%     77.90% # Class of executed instruction
system.cpu0.op_class::MemRead                  940692     13.72%     91.63% # Class of executed instruction
system.cpu0.op_class::MemWrite                 573998      8.37%    100.00% # Class of executed instruction
system.cpu0.op_class::IprAccess                     0      0.00%    100.00% # Class of executed instruction
system.cpu0.op_class::InstPrefetch                  0      0.00%    100.00% # Class of executed instruction
system.cpu0.op_class::total                   6854219                       # Class of executed instruction
system.cpu1.apic_clk_domain.clock                8000                       # Clock period in ticks
system.cpu1.numCycles                      6581004378                       # number of cpu cycles simulated
system.cpu1.numWorkItemsStarted                     0                       # number of work items this cpu started
system.cpu1.numWorkItemsCompleted                   0                       # number of work items this cpu completed
system.cpu1.kern.inst.arm                           0                       # number of arm instructions executed
system.cpu1.kern.inst.quiesce                       0                       # number of quiesce instructions executed
system.cpu1.committedInsts                 1523023344                       # Number of instructions committed
system.cpu1.committedOps                   2548470696                       # Number of ops (including micro ops) committed
system.cpu1.num_int_alu_accesses           1952918684                       # Number of integer alu accesses
system.cpu1.num_fp_alu_accesses             965601665                       # Number of float alu accesses
system.cpu1.num_func_calls                   35525337                       # number of times a function call or return occured
system.cpu1.num_conditional_control_insts    171936164                       # number of instructions that are conditional controls
system.cpu1.num_int_insts                  1952918684                       # number of integer instructions
system.cpu1.num_fp_insts                    965601665                       # number of float instructions
system.cpu1.num_int_register_reads         4136350695                       # number of times the integer registers were read
system.cpu1.num_int_register_writes        1332281352                       # number of times the integer registers were written
system.cpu1.num_fp_register_reads          1529965546                       # number of times the floating registers were read
system.cpu1.num_fp_register_writes          790021367                       # number of times the floating registers were written
system.cpu1.num_cc_register_reads          1449549809                       # number of times the CC registers were read
system.cpu1.num_cc_register_writes          551368048                       # number of times the CC registers were written
system.cpu1.num_mem_refs                    645409151                       # number of memory refs
system.cpu1.num_load_insts                  478791464                       # Number of load instructions
system.cpu1.num_store_insts                 166617687                       # Number of store instructions
system.cpu1.num_idle_cycles              5048230.199252                       # Number of idle cycles
system.cpu1.num_busy_cycles              6575956147.800748                       # Number of busy cycles
system.cpu1.not_idle_fraction                0.999233                       # Percentage of non-idle cycles
system.cpu1.idle_fraction                    0.000767                       # Percentage of idle cycles
system.cpu1.Branches                        231868014                       # Number of branches fetched
system.cpu1.op_class::No_OpClass              3404345      0.13%      0.13% # Class of executed instruction
system.cpu1.op_class::IntAlu               1476149762     57.92%     58.06% # Class of executed instruction
system.cpu1.op_class::IntMult                 4736063      0.19%     58.24% # Class of executed instruction
system.cpu1.op_class::IntDiv                 19610454      0.77%     59.01% # Class of executed instruction
system.cpu1.op_class::FloatAdd              398092941     15.62%     74.63% # Class of executed instruction
system.cpu1.op_class::FloatCmp                      0      0.00%     74.63% # Class of executed instruction
system.cpu1.op_class::FloatCvt                      0      0.00%     74.63% # Class of executed instruction
system.cpu1.op_class::FloatMult                     0      0.00%     74.63% # Class of executed instruction
system.cpu1.op_class::FloatDiv                1068156      0.04%     74.67% # Class of executed instruction
system.cpu1.op_class::FloatSqrt                     0      0.00%     74.67% # Class of executed instruction
system.cpu1.op_class::SimdAdd                       0      0.00%     74.67% # Class of executed instruction
system.cpu1.op_class::SimdAddAcc                    0      0.00%     74.67% # Class of executed instruction
system.cpu1.op_class::SimdAlu                       0      0.00%     74.67% # Class of executed instruction
system.cpu1.op_class::SimdCmp                       0      0.00%     74.67% # Class of executed instruction
system.cpu1.op_class::SimdCvt                       0      0.00%     74.67% # Class of executed instruction
system.cpu1.op_class::SimdMisc                      0      0.00%     74.67% # Class of executed instruction
system.cpu1.op_class::SimdMult                      0      0.00%     74.67% # Class of executed instruction
system.cpu1.op_class::SimdMultAcc                   0      0.00%     74.67% # Class of executed instruction
system.cpu1.op_class::SimdShift                     0      0.00%     74.67% # Class of executed instruction
system.cpu1.op_class::SimdShiftAcc                  0      0.00%     74.67% # Class of executed instruction
system.cpu1.op_class::SimdSqrt                      0      0.00%     74.67% # Class of executed instruction
system.cpu1.op_class::SimdFloatAdd                  0      0.00%     74.67% # Class of executed instruction
system.cpu1.op_class::SimdFloatAlu                  0      0.00%     74.67% # Class of executed instruction
system.cpu1.op_class::SimdFloatCmp                  0      0.00%     74.67% # Class of executed instruction
system.cpu1.op_class::SimdFloatCvt                  0      0.00%     74.67% # Class of executed instruction
system.cpu1.op_class::SimdFloatDiv                  0      0.00%     74.67% # Class of executed instruction
system.cpu1.op_class::SimdFloatMisc                 0      0.00%     74.67% # Class of executed instruction
system.cpu1.op_class::SimdFloatMult                 0      0.00%     74.67% # Class of executed instruction
system.cpu1.op_class::SimdFloatMultAcc              0      0.00%     74.67% # Class of executed instruction
system.cpu1.op_class::SimdFloatSqrt                 0      0.00%     74.67% # Class of executed instruction
system.cpu1.op_class::MemRead               478791464     18.79%     93.46% # Class of executed instruction
system.cpu1.op_class::MemWrite              166617687      6.54%    100.00% # Class of executed instruction
system.cpu1.op_class::IprAccess                     0      0.00%    100.00% # Class of executed instruction
system.cpu1.op_class::InstPrefetch                  0      0.00%    100.00% # Class of executed instruction
system.cpu1.op_class::total                2548470872                       # Class of executed instruction
system.cpu2.apic_clk_domain.clock                8000                       # Clock period in ticks
system.cpu2.numCycles                      6578559057                       # number of cpu cycles simulated
system.cpu2.numWorkItemsStarted                     0                       # number of work items this cpu started
system.cpu2.numWorkItemsCompleted                   0                       # number of work items this cpu completed
system.cpu2.kern.inst.arm                           0                       # number of arm instructions executed
system.cpu2.kern.inst.quiesce                       0                       # number of quiesce instructions executed
system.cpu2.committedInsts                    2829045                       # Number of instructions committed
system.cpu2.committedOps                      6035542                       # Number of ops (including micro ops) committed
system.cpu2.num_int_alu_accesses              5914854                       # Number of integer alu accesses
system.cpu2.num_fp_alu_accesses                     0                       # Number of float alu accesses
system.cpu2.num_func_calls                     158818                       # number of times a function call or return occured
system.cpu2.num_conditional_control_insts       484610                       # number of instructions that are conditional controls
system.cpu2.num_int_insts                     5914854                       # number of integer instructions
system.cpu2.num_fp_insts                            0                       # number of float instructions
system.cpu2.num_int_register_reads           11729741                       # number of times the integer registers were read
system.cpu2.num_int_register_writes           4882824                       # number of times the integer registers were written
system.cpu2.num_fp_register_reads                   0                       # number of times the floating registers were read
system.cpu2.num_fp_register_writes                  0                       # number of times the floating registers were written
system.cpu2.num_cc_register_reads             3710311                       # number of times the CC registers were read
system.cpu2.num_cc_register_writes            1882073                       # number of times the CC registers were written
system.cpu2.num_mem_refs                      1328630                       # number of memory refs
system.cpu2.num_load_insts                     831318                       # Number of load instructions
system.cpu2.num_store_insts                    497312                       # Number of store instructions
system.cpu2.num_idle_cycles              6565768400.684677                       # Number of idle cycles
system.cpu2.num_busy_cycles              12790656.315323                       # Number of busy cycles
system.cpu2.not_idle_fraction                0.001944                       # Percentage of non-idle cycles
system.cpu2.idle_fraction                    0.998056                       # Percentage of idle cycles
system.cpu2.Branches                           693001                       # Number of branches fetched
system.cpu2.op_class::No_OpClass                98178      1.63%      1.63% # Class of executed instruction
system.cpu2.op_class::IntAlu                  4563584     75.61%     77.24% # Class of executed instruction
system.cpu2.op_class::IntMult                   10930      0.18%     77.42% # Class of executed instruction
system.cpu2.op_class::IntDiv                    34223      0.57%     77.99% # Class of executed instruction
system.cpu2.op_class::FloatAdd                      0      0.00%     77.99% # Class of executed instruction
system.cpu2.op_class::FloatCmp                      0      0.00%     77.99% # Class of executed instruction
system.cpu2.op_class::FloatCvt                      0      0.00%     77.99% # Class of executed instruction
system.cpu2.op_class::FloatMult                     0      0.00%     77.99% # Class of executed instruction
system.cpu2.op_class::FloatDiv                      0      0.00%     77.99% # Class of executed instruction
system.cpu2.op_class::FloatSqrt                     0      0.00%     77.99% # Class of executed instruction
system.cpu2.op_class::SimdAdd                       0      0.00%     77.99% # Class of executed instruction
system.cpu2.op_class::SimdAddAcc                    0      0.00%     77.99% # Class of executed instruction
system.cpu2.op_class::SimdAlu                       0      0.00%     77.99% # Class of executed instruction
system.cpu2.op_class::SimdCmp                       0      0.00%     77.99% # Class of executed instruction
system.cpu2.op_class::SimdCvt                       0      0.00%     77.99% # Class of executed instruction
system.cpu2.op_class::SimdMisc                      0      0.00%     77.99% # Class of executed instruction
system.cpu2.op_class::SimdMult                      0      0.00%     77.99% # Class of executed instruction
system.cpu2.op_class::SimdMultAcc                   0      0.00%     77.99% # Class of executed instruction
system.cpu2.op_class::SimdShift                     0      0.00%     77.99% # Class of executed instruction
system.cpu2.op_class::SimdShiftAcc                  0      0.00%     77.99% # Class of executed instruction
system.cpu2.op_class::SimdSqrt                      0      0.00%     77.99% # Class of executed instruction
system.cpu2.op_class::SimdFloatAdd                  0      0.00%     77.99% # Class of executed instruction
system.cpu2.op_class::SimdFloatAlu                  0      0.00%     77.99% # Class of executed instruction
system.cpu2.op_class::SimdFloatCmp                  0      0.00%     77.99% # Class of executed instruction
system.cpu2.op_class::SimdFloatCvt                  0      0.00%     77.99% # Class of executed instruction
system.cpu2.op_class::SimdFloatDiv                  0      0.00%     77.99% # Class of executed instruction
system.cpu2.op_class::SimdFloatMisc                 0      0.00%     77.99% # Class of executed instruction
system.cpu2.op_class::SimdFloatMult                 0      0.00%     77.99% # Class of executed instruction
system.cpu2.op_class::SimdFloatMultAcc              0      0.00%     77.99% # Class of executed instruction
system.cpu2.op_class::SimdFloatSqrt                 0      0.00%     77.99% # Class of executed instruction
system.cpu2.op_class::MemRead                  831318     13.77%     91.76% # Class of executed instruction
system.cpu2.op_class::MemWrite                 497312      8.24%    100.00% # Class of executed instruction
system.cpu2.op_class::IprAccess                     0      0.00%    100.00% # Class of executed instruction
system.cpu2.op_class::InstPrefetch                  0      0.00%    100.00% # Class of executed instruction
system.cpu2.op_class::total                   6035545                       # Class of executed instruction
system.cpu3.apic_clk_domain.clock                8000                       # Clock period in ticks
system.cpu3.numCycles                      6577271803                       # number of cpu cycles simulated
system.cpu3.numWorkItemsStarted                     0                       # number of work items this cpu started
system.cpu3.numWorkItemsCompleted                   0                       # number of work items this cpu completed
system.cpu3.kern.inst.arm                           0                       # number of arm instructions executed
system.cpu3.kern.inst.quiesce                       0                       # number of quiesce instructions executed
system.cpu3.committedInsts                    3735553                       # Number of instructions committed
system.cpu3.committedOps                      7718612                       # Number of ops (including micro ops) committed
system.cpu3.num_int_alu_accesses              7576138                       # Number of integer alu accesses
system.cpu3.num_fp_alu_accesses                  1778                       # Number of float alu accesses
system.cpu3.num_func_calls                     191308                       # number of times a function call or return occured
system.cpu3.num_conditional_control_insts       636513                       # number of instructions that are conditional controls
system.cpu3.num_int_insts                     7576138                       # number of integer instructions
system.cpu3.num_fp_insts                         1778                       # number of float instructions
system.cpu3.num_int_register_reads           15074988                       # number of times the integer registers were read
system.cpu3.num_int_register_writes           6225324                       # number of times the integer registers were written
system.cpu3.num_fp_register_reads                2988                       # number of times the floating registers were read
system.cpu3.num_fp_register_writes               1416                       # number of times the floating registers were written
system.cpu3.num_cc_register_reads             4746290                       # number of times the CC registers were read
system.cpu3.num_cc_register_writes            2483436                       # number of times the CC registers were written
system.cpu3.num_mem_refs                      1701376                       # number of memory refs
system.cpu3.num_load_insts                    1064498                       # Number of load instructions
system.cpu3.num_store_insts                    636878                       # Number of store instructions
system.cpu3.num_idle_cycles              6559463028.317748                       # Number of idle cycles
system.cpu3.num_busy_cycles              17808774.682253                       # Number of busy cycles
system.cpu3.not_idle_fraction                0.002708                       # Percentage of non-idle cycles
system.cpu3.idle_fraction                    0.997292                       # Percentage of idle cycles
system.cpu3.Branches                           887608                       # Number of branches fetched
system.cpu3.op_class::No_OpClass               107798      1.40%      1.40% # Class of executed instruction
system.cpu3.op_class::IntAlu                  5858404     75.90%     77.30% # Class of executed instruction
system.cpu3.op_class::IntMult                   12304      0.16%     77.45% # Class of executed instruction
system.cpu3.op_class::IntDiv                    37476      0.49%     77.94% # Class of executed instruction
system.cpu3.op_class::FloatAdd                   1344      0.02%     77.96% # Class of executed instruction
system.cpu3.op_class::FloatCmp                      0      0.00%     77.96% # Class of executed instruction
system.cpu3.op_class::FloatCvt                      0      0.00%     77.96% # Class of executed instruction
system.cpu3.op_class::FloatMult                     0      0.00%     77.96% # Class of executed instruction
system.cpu3.op_class::FloatDiv                      0      0.00%     77.96% # Class of executed instruction
system.cpu3.op_class::FloatSqrt                     0      0.00%     77.96% # Class of executed instruction
system.cpu3.op_class::SimdAdd                       0      0.00%     77.96% # Class of executed instruction
system.cpu3.op_class::SimdAddAcc                    0      0.00%     77.96% # Class of executed instruction
system.cpu3.op_class::SimdAlu                       0      0.00%     77.96% # Class of executed instruction
system.cpu3.op_class::SimdCmp                       0      0.00%     77.96% # Class of executed instruction
system.cpu3.op_class::SimdCvt                       0      0.00%     77.96% # Class of executed instruction
system.cpu3.op_class::SimdMisc                      0      0.00%     77.96% # Class of executed instruction
system.cpu3.op_class::SimdMult                      0      0.00%     77.96% # Class of executed instruction
system.cpu3.op_class::SimdMultAcc                   0      0.00%     77.96% # Class of executed instruction
system.cpu3.op_class::SimdShift                     0      0.00%     77.96% # Class of executed instruction
system.cpu3.op_class::SimdShiftAcc                  0      0.00%     77.96% # Class of executed instruction
system.cpu3.op_class::SimdSqrt                      0      0.00%     77.96% # Class of executed instruction
system.cpu3.op_class::SimdFloatAdd                  0      0.00%     77.96% # Class of executed instruction
system.cpu3.op_class::SimdFloatAlu                  0      0.00%     77.96% # Class of executed instruction
system.cpu3.op_class::SimdFloatCmp                  0      0.00%     77.96% # Class of executed instruction
system.cpu3.op_class::SimdFloatCvt                  0      0.00%     77.96% # Class of executed instruction
system.cpu3.op_class::SimdFloatDiv                  0      0.00%     77.96% # Class of executed instruction
system.cpu3.op_class::SimdFloatMisc                 0      0.00%     77.96% # Class of executed instruction
system.cpu3.op_class::SimdFloatMult                 0      0.00%     77.96% # Class of executed instruction
system.cpu3.op_class::SimdFloatMultAcc              0      0.00%     77.96% # Class of executed instruction
system.cpu3.op_class::SimdFloatSqrt                 0      0.00%     77.96% # Class of executed instruction
system.cpu3.op_class::MemRead                 1064498     13.79%     91.75% # Class of executed instruction
system.cpu3.op_class::MemWrite                 636878      8.25%    100.00% # Class of executed instruction
system.cpu3.op_class::IprAccess                     0      0.00%    100.00% # Class of executed instruction
system.cpu3.op_class::InstPrefetch                  0      0.00%    100.00% # Class of executed instruction
system.cpu3.op_class::total                   7718702                       # Class of executed instruction
system.iobus.trans_dist::ReadReq                  865                       # Transaction distribution
system.iobus.trans_dist::ReadResp                 865                       # Transaction distribution
system.iobus.trans_dist::WriteReq                4923                       # Transaction distribution
system.iobus.trans_dist::WriteResp               4923                       # Transaction distribution
system.iobus.trans_dist::MessageReq               111                       # Transaction distribution
system.iobus.trans_dist::MessageResp              111                       # Transaction distribution
system.iobus.pkt_count_system.pc.south_bridge.io_apic.int_master::system.ruby.l0_cntrl0.sequencer.pio-slave-port           52                       # Packet count per connected master and slave (bytes)
system.iobus.pkt_count_system.pc.south_bridge.io_apic.int_master::system.ruby.l0_cntrl1.sequencer.pio-slave-port           52                       # Packet count per connected master and slave (bytes)
system.iobus.pkt_count_system.pc.south_bridge.io_apic.int_master::system.ruby.l0_cntrl2.sequencer.pio-slave-port           50                       # Packet count per connected master and slave (bytes)
system.iobus.pkt_count_system.pc.south_bridge.io_apic.int_master::system.ruby.l0_cntrl3.sequencer.pio-slave-port           50                       # Packet count per connected master and slave (bytes)
system.iobus.pkt_count_system.pc.south_bridge.io_apic.int_master::total          204                       # Packet count per connected master and slave (bytes)
system.iobus.pkt_count_system.ruby.l0_cntrl0.sequencer.mem-master-port::system.pc.south_bridge.ide.pio         1048                       # Packet count per connected master and slave (bytes)
system.iobus.pkt_count_system.ruby.l0_cntrl0.sequencer.mem-master-port::system.pc.south_bridge.io_apic.pio            8                       # Packet count per connected master and slave (bytes)
system.iobus.pkt_count_system.ruby.l0_cntrl0.sequencer.mem-master-port::system.pc.com_1.pio            2                       # Packet count per connected master and slave (bytes)
system.iobus.pkt_count_system.ruby.l0_cntrl0.sequencer.mem-master-port::system.ruby.l0_cntrl0.sequencer.pio-slave-port         1714                       # Packet count per connected master and slave (bytes)
system.iobus.pkt_count_system.ruby.l0_cntrl0.sequencer.mem-master-port::system.ruby.l0_cntrl1.sequencer.pio-slave-port            2                       # Packet count per connected master and slave (bytes)
system.iobus.pkt_count_system.ruby.l0_cntrl0.sequencer.mem-master-port::total         2774                       # Packet count per connected master and slave (bytes)
system.iobus.pkt_count_system.ruby.l0_cntrl1.sequencer.mem-master-port::system.pc.south_bridge.ide.pio         1558                       # Packet count per connected master and slave (bytes)
system.iobus.pkt_count_system.ruby.l0_cntrl1.sequencer.mem-master-port::system.pc.south_bridge.io_apic.pio            8                       # Packet count per connected master and slave (bytes)
system.iobus.pkt_count_system.ruby.l0_cntrl1.sequencer.mem-master-port::system.ruby.l0_cntrl0.sequencer.pio-slave-port            6                       # Packet count per connected master and slave (bytes)
system.iobus.pkt_count_system.ruby.l0_cntrl1.sequencer.mem-master-port::system.ruby.l0_cntrl1.sequencer.pio-slave-port         1726                       # Packet count per connected master and slave (bytes)
system.iobus.pkt_count_system.ruby.l0_cntrl1.sequencer.mem-master-port::system.ruby.l0_cntrl2.sequencer.pio-slave-port            2                       # Packet count per connected master and slave (bytes)
system.iobus.pkt_count_system.ruby.l0_cntrl1.sequencer.mem-master-port::total         3300                       # Packet count per connected master and slave (bytes)
system.iobus.pkt_count_system.ruby.l0_cntrl2.sequencer.mem-master-port::system.pc.south_bridge.ide.pio          934                       # Packet count per connected master and slave (bytes)
system.iobus.pkt_count_system.ruby.l0_cntrl2.sequencer.mem-master-port::system.pc.south_bridge.io_apic.pio            6                       # Packet count per connected master and slave (bytes)
system.iobus.pkt_count_system.ruby.l0_cntrl2.sequencer.mem-master-port::system.pc.com_1.pio          174                       # Packet count per connected master and slave (bytes)
system.iobus.pkt_count_system.ruby.l0_cntrl2.sequencer.mem-master-port::system.ruby.l0_cntrl2.sequencer.pio-slave-port         1706                       # Packet count per connected master and slave (bytes)
system.iobus.pkt_count_system.ruby.l0_cntrl2.sequencer.mem-master-port::system.ruby.l0_cntrl3.sequencer.pio-slave-port            2                       # Packet count per connected master and slave (bytes)
system.iobus.pkt_count_system.ruby.l0_cntrl2.sequencer.mem-master-port::total         2822                       # Packet count per connected master and slave (bytes)
system.iobus.pkt_count_system.ruby.l0_cntrl3.sequencer.mem-master-port::system.pc.south_bridge.ide.pio          968                       # Packet count per connected master and slave (bytes)
system.iobus.pkt_count_system.ruby.l0_cntrl3.sequencer.mem-master-port::system.pc.south_bridge.io_apic.pio            8                       # Packet count per connected master and slave (bytes)
system.iobus.pkt_count_system.ruby.l0_cntrl3.sequencer.mem-master-port::system.ruby.l0_cntrl0.sequencer.pio-slave-port            2                       # Packet count per connected master and slave (bytes)
system.iobus.pkt_count_system.ruby.l0_cntrl3.sequencer.mem-master-port::system.ruby.l0_cntrl1.sequencer.pio-slave-port            2                       # Packet count per connected master and slave (bytes)
system.iobus.pkt_count_system.ruby.l0_cntrl3.sequencer.mem-master-port::system.ruby.l0_cntrl2.sequencer.pio-slave-port            2                       # Packet count per connected master and slave (bytes)
system.iobus.pkt_count_system.ruby.l0_cntrl3.sequencer.mem-master-port::system.ruby.l0_cntrl3.sequencer.pio-slave-port         1716                       # Packet count per connected master and slave (bytes)
system.iobus.pkt_count_system.ruby.l0_cntrl3.sequencer.mem-master-port::total         2698                       # Packet count per connected master and slave (bytes)
system.iobus.pkt_count::total                   11798                       # Packet count per connected master and slave (bytes)
system.iobus.pkt_size_system.pc.south_bridge.io_apic.int_master::system.ruby.l0_cntrl0.sequencer.pio-slave-port          104                       # Cumulative packet size per connected master and slave (bytes)
system.iobus.pkt_size_system.pc.south_bridge.io_apic.int_master::system.ruby.l0_cntrl1.sequencer.pio-slave-port          104                       # Cumulative packet size per connected master and slave (bytes)
system.iobus.pkt_size_system.pc.south_bridge.io_apic.int_master::system.ruby.l0_cntrl2.sequencer.pio-slave-port          100                       # Cumulative packet size per connected master and slave (bytes)
system.iobus.pkt_size_system.pc.south_bridge.io_apic.int_master::system.ruby.l0_cntrl3.sequencer.pio-slave-port          100                       # Cumulative packet size per connected master and slave (bytes)
system.iobus.pkt_size_system.pc.south_bridge.io_apic.int_master::total          408                       # Cumulative packet size per connected master and slave (bytes)
system.iobus.pkt_size_system.ruby.l0_cntrl0.sequencer.mem-master-port::system.pc.south_bridge.ide.pio          590                       # Cumulative packet size per connected master and slave (bytes)
system.iobus.pkt_size_system.ruby.l0_cntrl0.sequencer.mem-master-port::system.pc.south_bridge.io_apic.pio           16                       # Cumulative packet size per connected master and slave (bytes)
system.iobus.pkt_size_system.ruby.l0_cntrl0.sequencer.mem-master-port::system.pc.com_1.pio            1                       # Cumulative packet size per connected master and slave (bytes)
system.iobus.pkt_size_system.ruby.l0_cntrl0.sequencer.mem-master-port::system.ruby.l0_cntrl0.sequencer.pio-slave-port         3428                       # Cumulative packet size per connected master and slave (bytes)
system.iobus.pkt_size_system.ruby.l0_cntrl0.sequencer.mem-master-port::system.ruby.l0_cntrl1.sequencer.pio-slave-port            4                       # Cumulative packet size per connected master and slave (bytes)
system.iobus.pkt_size_system.ruby.l0_cntrl0.sequencer.mem-master-port::total         4039                       # Cumulative packet size per connected master and slave (bytes)
system.iobus.pkt_size_system.ruby.l0_cntrl1.sequencer.mem-master-port::system.pc.south_bridge.ide.pio          890                       # Cumulative packet size per connected master and slave (bytes)
system.iobus.pkt_size_system.ruby.l0_cntrl1.sequencer.mem-master-port::system.pc.south_bridge.io_apic.pio           16                       # Cumulative packet size per connected master and slave (bytes)
system.iobus.pkt_size_system.ruby.l0_cntrl1.sequencer.mem-master-port::system.ruby.l0_cntrl0.sequencer.pio-slave-port           12                       # Cumulative packet size per connected master and slave (bytes)
system.iobus.pkt_size_system.ruby.l0_cntrl1.sequencer.mem-master-port::system.ruby.l0_cntrl1.sequencer.pio-slave-port         3452                       # Cumulative packet size per connected master and slave (bytes)
system.iobus.pkt_size_system.ruby.l0_cntrl1.sequencer.mem-master-port::system.ruby.l0_cntrl2.sequencer.pio-slave-port            4                       # Cumulative packet size per connected master and slave (bytes)
system.iobus.pkt_size_system.ruby.l0_cntrl1.sequencer.mem-master-port::total         4374                       # Cumulative packet size per connected master and slave (bytes)
system.iobus.pkt_size_system.ruby.l0_cntrl2.sequencer.mem-master-port::system.pc.south_bridge.ide.pio          524                       # Cumulative packet size per connected master and slave (bytes)
system.iobus.pkt_size_system.ruby.l0_cntrl2.sequencer.mem-master-port::system.pc.south_bridge.io_apic.pio           12                       # Cumulative packet size per connected master and slave (bytes)
system.iobus.pkt_size_system.ruby.l0_cntrl2.sequencer.mem-master-port::system.pc.com_1.pio           87                       # Cumulative packet size per connected master and slave (bytes)
system.iobus.pkt_size_system.ruby.l0_cntrl2.sequencer.mem-master-port::system.ruby.l0_cntrl2.sequencer.pio-slave-port         3412                       # Cumulative packet size per connected master and slave (bytes)
system.iobus.pkt_size_system.ruby.l0_cntrl2.sequencer.mem-master-port::system.ruby.l0_cntrl3.sequencer.pio-slave-port            4                       # Cumulative packet size per connected master and slave (bytes)
system.iobus.pkt_size_system.ruby.l0_cntrl2.sequencer.mem-master-port::total         4039                       # Cumulative packet size per connected master and slave (bytes)
system.iobus.pkt_size_system.ruby.l0_cntrl3.sequencer.mem-master-port::system.pc.south_bridge.ide.pio          544                       # Cumulative packet size per connected master and slave (bytes)
system.iobus.pkt_size_system.ruby.l0_cntrl3.sequencer.mem-master-port::system.pc.south_bridge.io_apic.pio           16                       # Cumulative packet size per connected master and slave (bytes)
system.iobus.pkt_size_system.ruby.l0_cntrl3.sequencer.mem-master-port::system.ruby.l0_cntrl0.sequencer.pio-slave-port            4                       # Cumulative packet size per connected master and slave (bytes)
system.iobus.pkt_size_system.ruby.l0_cntrl3.sequencer.mem-master-port::system.ruby.l0_cntrl1.sequencer.pio-slave-port            4                       # Cumulative packet size per connected master and slave (bytes)
system.iobus.pkt_size_system.ruby.l0_cntrl3.sequencer.mem-master-port::system.ruby.l0_cntrl2.sequencer.pio-slave-port            4                       # Cumulative packet size per connected master and slave (bytes)
system.iobus.pkt_size_system.ruby.l0_cntrl3.sequencer.mem-master-port::system.ruby.l0_cntrl3.sequencer.pio-slave-port         3432                       # Cumulative packet size per connected master and slave (bytes)
system.iobus.pkt_size_system.ruby.l0_cntrl3.sequencer.mem-master-port::total         4004                       # Cumulative packet size per connected master and slave (bytes)
system.iobus.pkt_size::total                    16864                       # Cumulative packet size per connected master and slave (bytes)
system.iobus.reqLayer2.occupancy              3900500                       # Layer occupancy (ticks)
system.iobus.reqLayer2.utilization                0.0                       # Layer utilization (%)
system.iobus.reqLayer8.occupancy                26996                       # Layer occupancy (ticks)
system.iobus.reqLayer8.utilization                0.0                       # Layer utilization (%)
system.iobus.reqLayer12.occupancy              114000                       # Layer occupancy (ticks)
system.iobus.reqLayer12.utilization               0.0                       # Layer utilization (%)
system.iobus.reqLayer17.occupancy             2205474                       # Layer occupancy (ticks)
system.iobus.reqLayer17.utilization               0.0                       # Layer utilization (%)
system.iobus.reqLayer18.occupancy             2409676                       # Layer occupancy (ticks)
system.iobus.reqLayer18.utilization               0.0                       # Layer utilization (%)
system.iobus.reqLayer19.occupancy             2187976                       # Layer occupancy (ticks)
system.iobus.reqLayer19.utilization               0.0                       # Layer utilization (%)
system.iobus.reqLayer20.occupancy             2197474                       # Layer occupancy (ticks)
system.iobus.reqLayer20.utilization               0.0                       # Layer utilization (%)
system.iobus.respLayer0.occupancy              182902                       # Layer occupancy (ticks)
system.iobus.respLayer0.utilization               0.0                       # Layer utilization (%)
system.iobus.respLayer2.occupancy             2006500                       # Layer occupancy (ticks)
system.iobus.respLayer2.utilization               0.0                       # Layer utilization (%)
system.iobus.respLayer4.occupancy             2335500                       # Layer occupancy (ticks)
system.iobus.respLayer4.utilization               0.0                       # Layer utilization (%)
system.iobus.respLayer6.occupancy             2077000                       # Layer occupancy (ticks)
system.iobus.respLayer6.utilization               0.0                       # Layer utilization (%)
system.iobus.respLayer8.occupancy             1959000                       # Layer occupancy (ticks)
system.iobus.respLayer8.utilization               0.0                       # Layer utilization (%)
system.pc.south_bridge.ide.disks.dma_read_full_pages         1522                       # Number of full page size DMA reads (not PRD).
system.pc.south_bridge.ide.disks.dma_read_bytes      6234112                       # Number of bytes transfered via DMA reads (not PRD).
system.pc.south_bridge.ide.disks.dma_read_txs         1522                       # Number of DMA read transactions (not PRD).
system.pc.south_bridge.ide.disks.dma_write_full_pages           45                       # Number of full page size DMA writes.
system.pc.south_bridge.ide.disks.dma_write_bytes       184320                       # Number of bytes transfered via DMA writes.
system.pc.south_bridge.ide.disks.dma_write_txs           45                       # Number of DMA write transactions.
system.ruby.clk_domain.clock                      500                       # Clock period in ticks
system.ruby.delayHist::bucket_size                  4                       # delay histogram for all message
system.ruby.delayHist::max_bucket                  39                       # delay histogram for all message
system.ruby.delayHist::samples              223909342                       # delay histogram for all message
system.ruby.delayHist::mean                  0.044559                       # delay histogram for all message
system.ruby.delayHist::stdev                 0.595239                       # delay histogram for all message
system.ruby.delayHist                    |   222663069     99.44%     99.44% |        3285      0.00%     99.44% |     1242660      0.55%    100.00% |         117      0.00%    100.00% |         181      0.00%    100.00% |          10      0.00%    100.00% |          20      0.00%    100.00% |           0      0.00%    100.00% |           0      0.00%    100.00% |           0      0.00%    100.00% # delay histogram for all message
system.ruby.delayHist::total                223909342                       # delay histogram for all message
system.ruby.outstanding_req_hist_seqr::bucket_size            1                      
system.ruby.outstanding_req_hist_seqr::max_bucket            9                      
system.ruby.outstanding_req_hist_seqr::samples   2883680541                      
system.ruby.outstanding_req_hist_seqr::mean     1.000000                      
system.ruby.outstanding_req_hist_seqr::gmean     1.000000                      
system.ruby.outstanding_req_hist_seqr::stdev     0.000272                      
system.ruby.outstanding_req_hist_seqr    |           0      0.00%      0.00% |  2883680327    100.00%    100.00% |         214      0.00%    100.00% |           0      0.00%    100.00% |           0      0.00%    100.00% |           0      0.00%    100.00% |           0      0.00%    100.00% |           0      0.00%    100.00% |           0      0.00%    100.00% |           0      0.00%    100.00%
system.ruby.outstanding_req_hist_seqr::total   2883680541                      
system.ruby.latency_hist_seqr::bucket_size          128                      
system.ruby.latency_hist_seqr::max_bucket         1279                      
system.ruby.latency_hist_seqr::samples     2883680541                      
system.ruby.latency_hist_seqr::mean          1.295284                      
system.ruby.latency_hist_seqr::gmean         1.095073                      
[...]
system.ruby.L1Cache_Controller.Ack       |       19405     46.36%     46.36% |        8859     21.16%     67.52% |        6966     16.64%     84.16% |        6631     15.84%    100.00%
system.ruby.L1Cache_Controller.Ack::total        41861                      
system.ruby.L1Cache_Controller.Ack_all   |        9770     37.77%     37.77% |        4934     19.07%     56.84% |        5333     20.61%     77.45% |        5833     22.55%    100.00%
system.ruby.L1Cache_Controller.Ack_all::total        25870                      
system.ruby.L1Cache_Controller.WB_Ack    |       47994      0.33%      0.33% |    14505594     98.48%     98.81% |       62235      0.42%     99.23% |      113305      0.77%    100.00%
system.ruby.L1Cache_Controller.WB_Ack::total     14729128                      
system.ruby.L1Cache_Controller.I.Load    |       85625      0.60%      0.60% |    13858994     97.60%     98.20% |      103643      0.73%     98.93% |      152156      1.07%    100.00%
system.ruby.L1Cache_Controller.I.Load::total     14200418                      
system.ruby.L1Cache_Controller.I.Store   |       16629      1.83%      1.83% |      848639     93.31%     95.14% |       17892      1.97%     97.11% |       26328      2.89%    100.00%
system.ruby.L1Cache_Controller.I.Store::total       909488                      
system.ruby.L1Cache_Controller.I.Inv     |        3691     21.73%     21.73% |        6894     40.58%     62.31% |        2429     14.30%     76.60% |        3975     23.40%    100.00%
system.ruby.L1Cache_Controller.I.Inv::total        16989                      
system.ruby.L1Cache_Controller.S.Load    |      263001     17.59%     17.59% |      667930     44.68%     62.27% |      279148     18.67%     80.95% |      284824     19.05%    100.00%
system.ruby.L1Cache_Controller.S.Load::total      1494903                      
system.ruby.L1Cache_Controller.S.Store   |        6426     35.99%     35.99% |        3926     21.99%     57.98% |        3555     19.91%     77.89% |        3947     22.11%    100.00%
system.ruby.L1Cache_Controller.S.Store::total        17854                      
system.ruby.L1Cache_Controller.S.L0_Invalidate_Own |       39522     12.39%     12.39% |      194529     60.98%     73.37% |       39807     12.48%     85.84% |       45161     14.16%    100.00%
system.ruby.L1Cache_Controller.S.L0_Invalidate_Own::total       319019                      
system.ruby.L1Cache_Controller.S.L0_Invalidate_Else |        6548     21.41%     21.41% |        1994      6.52%     27.93% |       10218     33.41%     61.35% |       11821     38.65%    100.00%
system.ruby.L1Cache_Controller.S.L0_Invalidate_Else::total        30581                      
system.ruby.L1Cache_Controller.SS.Load   |        3818     51.61%     51.61% |         714      9.65%     61.26% |        1370     18.52%     79.78% |        1496     20.22%    100.00%
system.ruby.L1Cache_Controller.SS.Load::total         7398                      
system.ruby.L1Cache_Controller.SS.Store  |        1972     85.93%     85.93% |         129      5.62%     91.55% |         132      5.75%     97.30% |          62      2.70%    100.00%
system.ruby.L1Cache_Controller.SS.Store::total         2295                      
system.ruby.L1Cache_Controller.SS.Inv    |       10916     24.17%     24.17% |        3741      8.28%     32.45% |       15061     33.34%     65.79% |       15452     34.21%    100.00%
system.ruby.L1Cache_Controller.SS.Inv::total        45170                      
system.ruby.L1Cache_Controller.SS.L1_Replacement |       41028     12.57%     12.57% |      196521     60.22%     72.79% |       41504     12.72%     85.51% |       47295     14.49%    100.00%
system.ruby.L1Cache_Controller.SS.L1_Replacement::total       326348                      
system.ruby.L1Cache_Controller.E.WriteBack |       36739      0.27%      0.27% |    13606597     98.70%     98.96% |       51318      0.37%     99.33% |       91841      0.67%    100.00%
system.ruby.L1Cache_Controller.E.WriteBack::total     13786495                      
system.ruby.L1Cache_Controller.E.L0_Invalidate_Own |         123      0.23%      0.23% |       52491     98.78%     99.02% |         152      0.29%     99.30% |         371      0.70%    100.00%
system.ruby.L1Cache_Controller.E.L0_Invalidate_Own::total        53137                      
system.ruby.L1Cache_Controller.E.L0_Invalidate_Else |         158     23.24%     23.24% |         116     17.06%     40.29% |         180     26.47%     66.76% |         226     33.24%    100.00%
system.ruby.L1Cache_Controller.E.L0_Invalidate_Else::total          680                      
system.ruby.L1Cache_Controller.EE.Inv    |           6     26.09%     26.09% |           3     13.04%     39.13% |          11     47.83%     86.96% |           3     13.04%    100.00%
system.ruby.L1Cache_Controller.EE.Inv::total           23                      
system.ruby.L1Cache_Controller.EE.L1_Replacement |         116      0.22%      0.22% |       52469     98.82%     99.04% |         141      0.27%     99.30% |         371      0.70%    100.00%
system.ruby.L1Cache_Controller.EE.L1_Replacement::total        53097                      
system.ruby.L1Cache_Controller.EE.Fwd_GETX |           5     31.25%     31.25% |           4     25.00%     56.25% |           2     12.50%     68.75% |           5     31.25%    100.00%
system.ruby.L1Cache_Controller.EE.Fwd_GETX::total           16                      
system.ruby.L1Cache_Controller.EE.Fwd_GETS |          82     18.72%     18.72% |          85     19.41%     38.13% |         115     26.26%     64.38% |         156     35.62%    100.00%
system.ruby.L1Cache_Controller.EE.Fwd_GETS::total          438                      
system.ruby.L1Cache_Controller.M.WriteBack |      207919      0.16%      0.16% |   132828743     99.31%     99.47% |      193427      0.14%     99.61% |      520595      0.39%    100.00%
system.ruby.L1Cache_Controller.M.WriteBack::total    133750684                      
system.ruby.L1Cache_Controller.M.L0_Invalidate_Own |        1679      0.24%      0.24% |      685427     99.20%     99.44% |        1700      0.25%     99.69% |        2143      0.31%    100.00%
system.ruby.L1Cache_Controller.M.L0_Invalidate_Own::total       690949                      
system.ruby.L1Cache_Controller.M.L0_Invalidate_Else |        4300     38.93%     38.93% |        1490     13.49%     52.42% |        2696     24.41%     76.83% |        2559     23.17%    100.00%
system.ruby.L1Cache_Controller.M.L0_Invalidate_Else::total        11045                      
system.ruby.L1Cache_Controller.MM.Load   |      140375      0.12%      0.12% |   119516900     99.44%     99.56% |      125562      0.10%     99.67% |      401978      0.33%    100.00%
system.ruby.L1Cache_Controller.MM.Load::total    120184815                      
system.ruby.L1Cache_Controller.MM.Store  |       48513      0.36%      0.36% |    13146054     98.56%     98.92% |       50684      0.38%     99.30% |       92959      0.70%    100.00%
system.ruby.L1Cache_Controller.MM.Store::total     13338210                      
system.ruby.L1Cache_Controller.MM.Inv    |         865     29.18%     29.18% |         532     17.95%     47.13% |        1076     36.30%     83.43% |         491     16.57%    100.00%
system.ruby.L1Cache_Controller.MM.Inv::total         2964                      
system.ruby.L1Cache_Controller.MM.L1_Replacement |       47878      0.33%      0.33% |    14453125     98.48%     98.81% |       62094      0.42%     99.23% |      112934      0.77%    100.00%
system.ruby.L1Cache_Controller.MM.L1_Replacement::total     14676031                      
system.ruby.L1Cache_Controller.MM.Fwd_GETX |        1238     19.48%     19.48% |        1310     20.61%     40.09% |        1730     27.22%     67.32% |        2077     32.68%    100.00%
system.ruby.L1Cache_Controller.MM.Fwd_GETX::total         6355                      
system.ruby.L1Cache_Controller.MM.Fwd_GETS |       11312     36.57%     36.57% |        4561     14.74%     51.31% |        7855     25.39%     76.70% |        7208     23.30%    100.00%
system.ruby.L1Cache_Controller.MM.Fwd_GETS::total        30936                      
system.ruby.L1Cache_Controller.IS.Data_Exclusive |       37038      0.27%      0.27% |    13659201     98.69%     98.96% |       51657      0.37%     99.33% |       92413      0.67%    100.00%
system.ruby.L1Cache_Controller.IS.Data_Exclusive::total     13840309                      
system.ruby.L1Cache_Controller.IS.DataS_fromL1 |        8890     28.34%     28.34% |        3503     11.17%     39.50% |        6396     20.39%     59.89% |       12585     40.11%    100.00%
system.ruby.L1Cache_Controller.IS.DataS_fromL1::total        31374                      
system.ruby.L1Cache_Controller.IS.Data_all_Acks |       39697     12.08%     12.08% |      196290     59.71%     71.79% |       45590     13.87%     85.65% |       47158     14.35%    100.00%
system.ruby.L1Cache_Controller.IS.Data_all_Acks::total       328735                      
system.ruby.L1Cache_Controller.IM.Data   |        1375     24.01%     24.01% |         880     15.37%     39.38% |        1647     28.76%     68.15% |        1824     31.85%    100.00%
system.ruby.L1Cache_Controller.IM.Data::total         5726                      
system.ruby.L1Cache_Controller.IM.Data_all_Acks |       15257      1.69%      1.69% |      847760     93.80%     95.49% |       16246      1.80%     97.29% |       24504      2.71%    100.00%
system.ruby.L1Cache_Controller.IM.Data_all_Acks::total       903767                      
system.ruby.L1Cache_Controller.SM.Inv    |           3     60.00%     60.00% |           1     20.00%     80.00% |           1     20.00%    100.00% |           0      0.00%    100.00%
system.ruby.L1Cache_Controller.SM.Inv::total            5                      
system.ruby.L1Cache_Controller.SM.Ack    |       19405     46.36%     46.36% |        8859     21.16%     67.52% |        6966     16.64%     84.16% |        6631     15.84%    100.00%
system.ruby.L1Cache_Controller.SM.Ack::total        41861                      
system.ruby.L1Cache_Controller.SM.Ack_all |        9770     37.77%     37.77% |        4934     19.07%     56.84% |        5333     20.61%     77.45% |        5833     22.55%    100.00%
system.ruby.L1Cache_Controller.SM.Ack_all::total        25870                      
system.ruby.L1Cache_Controller.M_I.WB_Ack |       47994      0.33%      0.33% |    14505594     98.48%     98.81% |       62235      0.42%     99.23% |      113305      0.77%    100.00%
system.ruby.L1Cache_Controller.M_I.WB_Ack::total     14729128                      
system.ruby.L1Cache_Controller.S_IL0.L0_Invalidate_Own |       39522     12.39%     12.39% |      194529     60.98%     73.37% |       39807     12.48%     85.84% |       45161     14.16%    100.00%
system.ruby.L1Cache_Controller.S_IL0.L0_Invalidate_Own::total       319019                      
system.ruby.L1Cache_Controller.S_IL0.L0_Invalidate_Else |        6548     21.41%     21.41% |        1994      6.52%     27.93% |       10218     33.41%     61.35% |       11821     38.65%    100.00%
system.ruby.L1Cache_Controller.S_IL0.L0_Invalidate_Else::total        30581                      
system.ruby.L1Cache_Controller.S_IL0.L0_Ack |       46070     13.18%     13.18% |      196523     56.21%     69.39% |       50025     14.31%     83.70% |       56982     16.30%    100.00%
system.ruby.L1Cache_Controller.S_IL0.L0_Ack::total       349600                      
system.ruby.L1Cache_Controller.E_IL0.L0_DataAck |          72     29.63%     29.63% |          46     18.93%     48.56% |          63     25.93%     74.49% |          62     25.51%    100.00%
system.ruby.L1Cache_Controller.E_IL0.L0_DataAck::total          243                      
system.ruby.L1Cache_Controller.E_IL0.L0_Invalidate_Own |         123      0.23%      0.23% |       52491     98.78%     99.02% |         152      0.29%     99.30% |         371      0.70%    100.00%
system.ruby.L1Cache_Controller.E_IL0.L0_Invalidate_Own::total        53137                      
system.ruby.L1Cache_Controller.E_IL0.L0_Invalidate_Else |         158     23.24%     23.24% |         116     17.06%     40.29% |         180     26.47%     66.76% |         226     33.24%    100.00%
system.ruby.L1Cache_Controller.E_IL0.L0_Invalidate_Else::total          680                      
system.ruby.L1Cache_Controller.E_IL0.L0_Ack |         209      0.39%      0.39% |       52561     98.11%     98.50% |         269      0.50%     99.00% |         535      1.00%    100.00%
system.ruby.L1Cache_Controller.E_IL0.L0_Ack::total        53574                      
system.ruby.L1Cache_Controller.M_IL0.WriteBack |           1    100.00%    100.00% |           0      0.00%    100.00% |           0      0.00%    100.00% |           0      0.00%    100.00%
system.ruby.L1Cache_Controller.M_IL0.WriteBack::total            1                      
system.ruby.L1Cache_Controller.M_IL0.L0_DataAck |        3828     11.18%     11.18% |       24070     70.30%     81.48% |        3348      9.78%     91.26% |        2994      8.74%    100.00%
system.ruby.L1Cache_Controller.M_IL0.L0_DataAck::total        34240                      
system.ruby.L1Cache_Controller.M_IL0.L0_Invalidate_Own |        1679      0.24%      0.24% |      685427     99.20%     99.44% |        1700      0.25%     99.69% |        2143      0.31%    100.00%
system.ruby.L1Cache_Controller.M_IL0.L0_Invalidate_Own::total       690949                      
system.ruby.L1Cache_Controller.M_IL0.L0_Invalidate_Else |        4300     38.93%     38.93% |        1490     13.49%     52.42% |        2696     24.41%     76.83% |        2559     23.17%    100.00%
system.ruby.L1Cache_Controller.M_IL0.L0_Invalidate_Else::total        11045                      
system.ruby.L1Cache_Controller.M_IL0.L0_Ack |        2150      0.32%      0.32% |      662847     99.27%     99.59% |        1048      0.16%     99.74% |        1708      0.26%    100.00%
system.ruby.L1Cache_Controller.M_IL0.L0_Ack::total       667753                      
system.ruby.L1Cache_Controller.MM_IL0.Fwd_GETS |           1    100.00%    100.00% |           0      0.00%    100.00% |           0      0.00%    100.00% |           0      0.00%    100.00%
system.ruby.L1Cache_Controller.MM_IL0.Fwd_GETS::total            1                      
system.ruby.L1Cache_Controller.MM_IL0.L0_Ack |           1    100.00%    100.00% |           0      0.00%    100.00% |           0      0.00%    100.00% |           0      0.00%    100.00%
system.ruby.L1Cache_Controller.MM_IL0.L0_Ack::total            1                      
system.ruby.L2Cache_Controller.L1_GETS       14200898      0.00%      0.00%
system.ruby.L2Cache_Controller.L1_GETX         909499      0.00%      0.00%
system.ruby.L2Cache_Controller.L1_UPGRADE        20149      0.00%      0.00%
system.ruby.L2Cache_Controller.L1_PUTX       14729128      0.00%      0.00%
system.ruby.L2Cache_Controller.L2_Replacement        39042      0.00%      0.00%
system.ruby.L2Cache_Controller.L2_Replacement_clean        91447      0.00%      0.00%
system.ruby.L2Cache_Controller.Mem_Data        147579      0.00%      0.00%
system.ruby.L2Cache_Controller.Mem_Ack         131312      0.00%      0.00%
system.ruby.L2Cache_Controller.WB_Data          20253      0.00%      0.00%
system.ruby.L2Cache_Controller.WB_Data_clean        14085      0.00%      0.00%
system.ruby.L2Cache_Controller.Ack               9587      0.00%      0.00%
system.ruby.L2Cache_Controller.Ack_all           5013      0.00%      0.00%
system.ruby.L2Cache_Controller.Unblock          31374      0.00%      0.00%
system.ruby.L2Cache_Controller.Exclusive_Unblock     14769946      0.00%      0.00%
system.ruby.L2Cache_Controller.MEM_Inv           1646      0.00%      0.00%
system.ruby.L2Cache_Controller.NP.L1_GETS       120443      0.00%      0.00%
system.ruby.L2Cache_Controller.NP.L1_GETX        27136      0.00%      0.00%
system.ruby.L2Cache_Controller.SS.L1_GETS       328727      0.00%      0.00%
system.ruby.L2Cache_Controller.SS.L1_GETX         5726      0.00%      0.00%
system.ruby.L2Cache_Controller.SS.L1_UPGRADE        20144      0.00%      0.00%
system.ruby.L2Cache_Controller.SS.L2_Replacement          716      0.00%      0.00%
system.ruby.L2Cache_Controller.SS.L2_Replacement_clean         4152      0.00%      0.00%
system.ruby.L2Cache_Controller.SS.MEM_Inv          122      0.00%      0.00%
system.ruby.L2Cache_Controller.M.L1_GETS     13719870      0.00%      0.00%
system.ruby.L2Cache_Controller.M.L1_GETX       870260      0.00%      0.00%
system.ruby.L2Cache_Controller.M.L2_Replacement        37309      0.00%      0.00%
system.ruby.L2Cache_Controller.M.L2_Replacement_clean        85491      0.00%      0.00%
system.ruby.L2Cache_Controller.M.MEM_Inv          535      0.00%      0.00%
system.ruby.L2Cache_Controller.MT.L1_GETS        31374      0.00%      0.00%
system.ruby.L2Cache_Controller.MT.L1_GETX         6371      0.00%      0.00%
system.ruby.L2Cache_Controller.MT.L1_PUTX     14729128      0.00%      0.00%
system.ruby.L2Cache_Controller.MT.L2_Replacement         1017      0.00%      0.00%
system.ruby.L2Cache_Controller.MT.L2_Replacement_clean         1804      0.00%      0.00%
system.ruby.L2Cache_Controller.MT.MEM_Inv          166      0.00%      0.00%
system.ruby.L2Cache_Controller.M_I.Mem_Ack       131312      0.00%      0.00%
system.ruby.L2Cache_Controller.M_I.MEM_Inv          535      0.00%      0.00%
system.ruby.L2Cache_Controller.MT_I.WB_Data         1004      0.00%      0.00%
system.ruby.L2Cache_Controller.MT_I.WB_Data_clean          176      0.00%      0.00%
system.ruby.L2Cache_Controller.MT_I.Ack_all            3      0.00%      0.00%
system.ruby.L2Cache_Controller.MT_I.MEM_Inv          166      0.00%      0.00%
system.ruby.L2Cache_Controller.MCT_I.WB_Data          804      0.00%      0.00%
system.ruby.L2Cache_Controller.MCT_I.WB_Data_clean          980      0.00%      0.00%
system.ruby.L2Cache_Controller.MCT_I.Ack_all           20      0.00%      0.00%
system.ruby.L2Cache_Controller.I_I.Ack           8567      0.00%      0.00%
system.ruby.L2Cache_Controller.I_I.Ack_all         4152      0.00%      0.00%
system.ruby.L2Cache_Controller.S_I.Ack           1020      0.00%      0.00%
system.ruby.L2Cache_Controller.S_I.Ack_all          838      0.00%      0.00%
system.ruby.L2Cache_Controller.S_I.MEM_Inv          122      0.00%      0.00%
system.ruby.L2Cache_Controller.ISS.L1_GETS            4      0.00%      0.00%
system.ruby.L2Cache_Controller.ISS.Mem_Data       120439      0.00%      0.00%
system.ruby.L2Cache_Controller.IS.Mem_Data            4      0.00%      0.00%
system.ruby.L2Cache_Controller.IM.Mem_Data        27136      0.00%      0.00%
system.ruby.L2Cache_Controller.SS_MB.L1_GETS          101      0.00%      0.00%
system.ruby.L2Cache_Controller.SS_MB.L1_GETX            2      0.00%      0.00%
system.ruby.L2Cache_Controller.SS_MB.L1_UPGRADE            5      0.00%      0.00%
system.ruby.L2Cache_Controller.SS_MB.Exclusive_Unblock        25870      0.00%      0.00%
system.ruby.L2Cache_Controller.MT_MB.L1_GETS          361      0.00%      0.00%
system.ruby.L2Cache_Controller.MT_MB.L1_GETX            4      0.00%      0.00%
system.ruby.L2Cache_Controller.MT_MB.Exclusive_Unblock     14744076      0.00%      0.00%
system.ruby.L2Cache_Controller.MT_IIB.L1_GETS           18      0.00%      0.00%
system.ruby.L2Cache_Controller.MT_IIB.WB_Data        18435      0.00%      0.00%
system.ruby.L2Cache_Controller.MT_IIB.WB_Data_clean        12923      0.00%      0.00%
system.ruby.L2Cache_Controller.MT_IIB.Unblock           16      0.00%      0.00%
system.ruby.L2Cache_Controller.MT_IB.WB_Data           10      0.00%      0.00%
system.ruby.L2Cache_Controller.MT_IB.WB_Data_clean            6      0.00%      0.00%
system.ruby.L2Cache_Controller.MT_SB.Unblock        31358      0.00%      0.00%

---------- End Simulation Statistics   ----------
