
---------- Begin Simulation Statistics ----------
sim_seconds                                  3.593739                       # Number of seconds simulated
sim_ticks                                3593739436000                       # Number of ticks simulated
final_tick                               54832329154001                       # Number of ticks from beginning of simulation (restored from checkpoints and never reset)
sim_freq                                 1000000000000                       # Frequency of simulated ticks
host_inst_rate                                 127692                       # Simulator instruction rate (inst/s)
host_op_rate                                   217464                       # Simulator op (including micro ops) rate (op/s)
host_tick_rate                              227095357                       # Simulator tick rate (ticks/s)
host_mem_usage                                1876888                       # Number of bytes of host memory used
host_seconds                                 15824.80                       # Real time elapsed on the host
sim_insts                                  2020699486                       # Number of instructions simulated
sim_ops                                    3441322300                       # Number of ops (including micro ops) simulated
system.voltage_domain.voltage                       1                       # Voltage in Volts
system.clk_domain.clock                          1000                       # Clock period in ticks
system.mem_ctrls0.bytes_read::ruby.dir_cntrl0       310912                       # Number of bytes read from this memory
system.mem_ctrls0.bytes_read::total            310912                       # Number of bytes read from this memory
system.mem_ctrls0.bytes_written::ruby.dir_cntrl0        50240                       # Number of bytes written to this memory
system.mem_ctrls0.bytes_written::total          50240                       # Number of bytes written to this memory
system.mem_ctrls0.num_reads::ruby.dir_cntrl0         4858                       # Number of read requests responded to by this memory
system.mem_ctrls0.num_reads::total               4858                       # Number of read requests responded to by this memory
system.mem_ctrls0.num_writes::ruby.dir_cntrl0          785                       # Number of write requests responded to by this memory
system.mem_ctrls0.num_writes::total               785                       # Number of write requests responded to by this memory
system.mem_ctrls0.bw_read::ruby.dir_cntrl0        86515                       # Total read bandwidth from this memory (bytes/s)
system.mem_ctrls0.bw_read::total                86515                       # Total read bandwidth from this memory (bytes/s)
system.mem_ctrls0.bw_write::ruby.dir_cntrl0        13980                       # Write bandwidth from this memory (bytes/s)
system.mem_ctrls0.bw_write::total               13980                       # Write bandwidth from this memory (bytes/s)
system.mem_ctrls0.bw_total::ruby.dir_cntrl0       100495                       # Total bandwidth to/from this memory (bytes/s)
system.mem_ctrls0.bw_total::total              100495                       # Total bandwidth to/from this memory (bytes/s)
system.mem_ctrls0.readReqs                       4858                       # Number of read requests accepted
system.mem_ctrls0.writeReqs                       785                       # Number of write requests accepted
system.mem_ctrls0.readBursts                     4858                       # Number of DRAM read bursts, including those serviced by the write queue
system.mem_ctrls0.writeBursts                     785                       # Number of DRAM write bursts, including those merged in the write queue
system.mem_ctrls0.bytesReadDRAM                310720                       # Total number of bytes read from DRAM
system.mem_ctrls0.bytesReadWrQ                    192                       # Total number of bytes read from write queue
system.mem_ctrls0.bytesWritten                  48512                       # Total number of bytes written to DRAM
system.mem_ctrls0.bytesReadSys                 310912                       # Total read bytes from the system interface side
system.mem_ctrls0.bytesWrittenSys               50240                       # Total written bytes from the system interface side
system.mem_ctrls0.servicedByWrQ                     3                       # Number of DRAM read bursts serviced by the write queue
system.mem_ctrls0.mergedWrBursts                    2                       # Number of DRAM write bursts merged with an existing one
system.mem_ctrls0.neitherReadNorWriteReqs            0                       # Number of requests that are neither read nor write
system.mem_ctrls0.perBankRdBursts::0              460                       # Per bank write bursts
system.mem_ctrls0.perBankRdBursts::1              366                       # Per bank write bursts
system.mem_ctrls0.perBankRdBursts::2              412                       # Per bank write bursts
system.mem_ctrls0.perBankRdBursts::3              324                       # Per bank write bursts
system.mem_ctrls0.perBankRdBursts::4              323                       # Per bank write bursts
system.mem_ctrls0.perBankRdBursts::5              353                       # Per bank write bursts
system.mem_ctrls0.perBankRdBursts::6              301                       # Per bank write bursts
system.mem_ctrls0.perBankRdBursts::7              247                       # Per bank write bursts
system.mem_ctrls0.perBankRdBursts::8              317                       # Per bank write bursts
system.mem_ctrls0.perBankRdBursts::9              171                       # Per bank write bursts
system.mem_ctrls0.perBankRdBursts::10             215                       # Per bank write bursts
system.mem_ctrls0.perBankRdBursts::11             337                       # Per bank write bursts
system.mem_ctrls0.perBankRdBursts::12             224                       # Per bank write bursts
system.mem_ctrls0.perBankRdBursts::13             190                       # Per bank write bursts
system.mem_ctrls0.perBankRdBursts::14             242                       # Per bank write bursts
system.mem_ctrls0.perBankRdBursts::15             373                       # Per bank write bursts
system.mem_ctrls0.perBankWrBursts::0              133                       # Per bank write bursts
system.mem_ctrls0.perBankWrBursts::1               97                       # Per bank write bursts
system.mem_ctrls0.perBankWrBursts::2                0                       # Per bank write bursts
system.mem_ctrls0.perBankWrBursts::3                2                       # Per bank write bursts
system.mem_ctrls0.perBankWrBursts::4                0                       # Per bank write bursts
system.mem_ctrls0.perBankWrBursts::5                3                       # Per bank write bursts
system.mem_ctrls0.perBankWrBursts::6               16                       # Per bank write bursts
system.mem_ctrls0.perBankWrBursts::7                1                       # Per bank write bursts
system.mem_ctrls0.perBankWrBursts::8               18                       # Per bank write bursts
system.mem_ctrls0.perBankWrBursts::9               49                       # Per bank write bursts
system.mem_ctrls0.perBankWrBursts::10              16                       # Per bank write bursts
system.mem_ctrls0.perBankWrBursts::11              34                       # Per bank write bursts
system.mem_ctrls0.perBankWrBursts::12              80                       # Per bank write bursts
system.mem_ctrls0.perBankWrBursts::13             128                       # Per bank write bursts
system.mem_ctrls0.perBankWrBursts::14              97                       # Per bank write bursts
system.mem_ctrls0.perBankWrBursts::15              84                       # Per bank write bursts
system.mem_ctrls0.numRdRetry                        0                       # Number of times read queue was full causing retry
system.mem_ctrls0.numWrRetry                        0                       # Number of times write queue was full causing retry
system.mem_ctrls0.totGap                 3593741683500                       # Total gap between requests
system.mem_ctrls0.readPktSize::0                    0                       # Read request sizes (log2)
system.mem_ctrls0.readPktSize::1                    0                       # Read request sizes (log2)
system.mem_ctrls0.readPktSize::2                    0                       # Read request sizes (log2)
system.mem_ctrls0.readPktSize::3                    0                       # Read request sizes (log2)
system.mem_ctrls0.readPktSize::4                    0                       # Read request sizes (log2)
system.mem_ctrls0.readPktSize::5                    0                       # Read request sizes (log2)
system.mem_ctrls0.readPktSize::6                 4858                       # Read request sizes (log2)
system.mem_ctrls0.writePktSize::0                   0                       # Write request sizes (log2)
system.mem_ctrls0.writePktSize::1                   0                       # Write request sizes (log2)
system.mem_ctrls0.writePktSize::2                   0                       # Write request sizes (log2)
system.mem_ctrls0.writePktSize::3                   0                       # Write request sizes (log2)
system.mem_ctrls0.writePktSize::4                   0                       # Write request sizes (log2)
system.mem_ctrls0.writePktSize::5                   0                       # Write request sizes (log2)
system.mem_ctrls0.writePktSize::6                 785                       # Write request sizes (log2)
system.mem_ctrls0.rdQLenPdf::0                   4845                       # What read queue length does an incoming req see
system.mem_ctrls0.rdQLenPdf::1                     10                       # What read queue length does an incoming req see
system.mem_ctrls0.rdQLenPdf::2                      0                       # What read queue length does an incoming req see
system.mem_ctrls0.rdQLenPdf::3                      0                       # What read queue length does an incoming req see
system.mem_ctrls0.rdQLenPdf::4                      0                       # What read queue length does an incoming req see
system.mem_ctrls0.rdQLenPdf::5                      0                       # What read queue length does an incoming req see
system.mem_ctrls0.rdQLenPdf::6                      0                       # What read queue length does an incoming req see
system.mem_ctrls0.rdQLenPdf::7                      0                       # What read queue length does an incoming req see
system.mem_ctrls0.rdQLenPdf::8                      0                       # What read queue length does an incoming req see
system.mem_ctrls0.rdQLenPdf::9                      0                       # What read queue length does an incoming req see
system.mem_ctrls0.rdQLenPdf::10                     0                       # What read queue length does an incoming req see
system.mem_ctrls0.rdQLenPdf::11                     0                       # What read queue length does an incoming req see
system.mem_ctrls0.rdQLenPdf::12                     0                       # What read queue length does an incoming req see
system.mem_ctrls0.rdQLenPdf::13                     0                       # What read queue length does an incoming req see
system.mem_ctrls0.rdQLenPdf::14                     0                       # What read queue length does an incoming req see
system.mem_ctrls0.rdQLenPdf::15                     0                       # What read queue length does an incoming req see
system.mem_ctrls0.rdQLenPdf::16                     0                       # What read queue length does an incoming req see
system.mem_ctrls0.rdQLenPdf::17                     0                       # What read queue length does an incoming req see
system.mem_ctrls0.rdQLenPdf::18                     0                       # What read queue length does an incoming req see
system.mem_ctrls0.rdQLenPdf::19                     0                       # What read queue length does an incoming req see
system.mem_ctrls0.rdQLenPdf::20                     0                       # What read queue length does an incoming req see
system.mem_ctrls0.rdQLenPdf::21                     0                       # What read queue length does an incoming req see
system.mem_ctrls0.rdQLenPdf::22                     0                       # What read queue length does an incoming req see
system.mem_ctrls0.rdQLenPdf::23                     0                       # What read queue length does an incoming req see
system.mem_ctrls0.rdQLenPdf::24                     0                       # What read queue length does an incoming req see
system.mem_ctrls0.rdQLenPdf::25                     0                       # What read queue length does an incoming req see
system.mem_ctrls0.rdQLenPdf::26                     0                       # What read queue length does an incoming req see
system.mem_ctrls0.rdQLenPdf::27                     0                       # What read queue length does an incoming req see
system.mem_ctrls0.rdQLenPdf::28                     0                       # What read queue length does an incoming req see
system.mem_ctrls0.rdQLenPdf::29                     0                       # What read queue length does an incoming req see
system.mem_ctrls0.rdQLenPdf::30                     0                       # What read queue length does an incoming req see
system.mem_ctrls0.rdQLenPdf::31                     0                       # What read queue length does an incoming req see
system.mem_ctrls0.wrQLenPdf::0                      1                       # What write queue length does an incoming req see
system.mem_ctrls0.wrQLenPdf::1                      1                       # What write queue length does an incoming req see
system.mem_ctrls0.wrQLenPdf::2                      1                       # What write queue length does an incoming req see
system.mem_ctrls0.wrQLenPdf::3                      1                       # What write queue length does an incoming req see
system.mem_ctrls0.wrQLenPdf::4                      1                       # What write queue length does an incoming req see
system.mem_ctrls0.wrQLenPdf::5                      1                       # What write queue length does an incoming req see
system.mem_ctrls0.wrQLenPdf::6                      1                       # What write queue length does an incoming req see
system.mem_ctrls0.wrQLenPdf::7                      1                       # What write queue length does an incoming req see
system.mem_ctrls0.wrQLenPdf::8                      1                       # What write queue length does an incoming req see
system.mem_ctrls0.wrQLenPdf::9                      1                       # What write queue length does an incoming req see
system.mem_ctrls0.wrQLenPdf::10                     1                       # What write queue length does an incoming req see
system.mem_ctrls0.wrQLenPdf::11                     1                       # What write queue length does an incoming req see
system.mem_ctrls0.wrQLenPdf::12                     1                       # What write queue length does an incoming req see
system.mem_ctrls0.wrQLenPdf::13                     1                       # What write queue length does an incoming req see
system.mem_ctrls0.wrQLenPdf::14                     1                       # What write queue length does an incoming req see
system.mem_ctrls0.wrQLenPdf::15                    43                       # What write queue length does an incoming req see
system.mem_ctrls0.wrQLenPdf::16                    43                       # What write queue length does an incoming req see
system.mem_ctrls0.wrQLenPdf::17                    43                       # What write queue length does an incoming req see
system.mem_ctrls0.wrQLenPdf::18                    43                       # What write queue length does an incoming req see
system.mem_ctrls0.wrQLenPdf::19                    43                       # What write queue length does an incoming req see
system.mem_ctrls0.wrQLenPdf::20                    43                       # What write queue length does an incoming req see
system.mem_ctrls0.wrQLenPdf::21                    43                       # What write queue length does an incoming req see
system.mem_ctrls0.wrQLenPdf::22                    43                       # What write queue length does an incoming req see
system.mem_ctrls0.wrQLenPdf::23                    44                       # What write queue length does an incoming req see
system.mem_ctrls0.wrQLenPdf::24                    43                       # What write queue length does an incoming req see
system.mem_ctrls0.wrQLenPdf::25                    42                       # What write queue length does an incoming req see
system.mem_ctrls0.wrQLenPdf::26                    42                       # What write queue length does an incoming req see
system.mem_ctrls0.wrQLenPdf::27                    42                       # What write queue length does an incoming req see
system.mem_ctrls0.wrQLenPdf::28                    42                       # What write queue length does an incoming req see
system.mem_ctrls0.wrQLenPdf::29                    42                       # What write queue length does an incoming req see
system.mem_ctrls0.wrQLenPdf::30                    42                       # What write queue length does an incoming req see
system.mem_ctrls0.wrQLenPdf::31                    42                       # What write queue length does an incoming req see
system.mem_ctrls0.wrQLenPdf::32                    42                       # What write queue length does an incoming req see
system.mem_ctrls0.wrQLenPdf::33                     1                       # What write queue length does an incoming req see
system.mem_ctrls0.wrQLenPdf::34                     0                       # What write queue length does an incoming req see
system.mem_ctrls0.wrQLenPdf::35                     0                       # What write queue length does an incoming req see
system.mem_ctrls0.wrQLenPdf::36                     0                       # What write queue length does an incoming req see
system.mem_ctrls0.wrQLenPdf::37                     0                       # What write queue length does an incoming req see
system.mem_ctrls0.wrQLenPdf::38                     0                       # What write queue length does an incoming req see
system.mem_ctrls0.wrQLenPdf::39                     0                       # What write queue length does an incoming req see
system.mem_ctrls0.wrQLenPdf::40                     0                       # What write queue length does an incoming req see
system.mem_ctrls0.wrQLenPdf::41                     0                       # What write queue length does an incoming req see
system.mem_ctrls0.wrQLenPdf::42                     0                       # What write queue length does an incoming req see
system.mem_ctrls0.wrQLenPdf::43                     0                       # What write queue length does an incoming req see
system.mem_ctrls0.wrQLenPdf::44                     0                       # What write queue length does an incoming req see
system.mem_ctrls0.wrQLenPdf::45                     0                       # What write queue length does an incoming req see
system.mem_ctrls0.wrQLenPdf::46                     0                       # What write queue length does an incoming req see
system.mem_ctrls0.wrQLenPdf::47                     0                       # What write queue length does an incoming req see
system.mem_ctrls0.wrQLenPdf::48                     0                       # What write queue length does an incoming req see
system.mem_ctrls0.wrQLenPdf::49                     0                       # What write queue length does an incoming req see
system.mem_ctrls0.wrQLenPdf::50                     0                       # What write queue length does an incoming req see
system.mem_ctrls0.wrQLenPdf::51                     0                       # What write queue length does an incoming req see
system.mem_ctrls0.wrQLenPdf::52                     0                       # What write queue length does an incoming req see
system.mem_ctrls0.wrQLenPdf::53                     0                       # What write queue length does an incoming req see
system.mem_ctrls0.wrQLenPdf::54                     0                       # What write queue length does an incoming req see
system.mem_ctrls0.wrQLenPdf::55                     0                       # What write queue length does an incoming req see
system.mem_ctrls0.wrQLenPdf::56                     0                       # What write queue length does an incoming req see
system.mem_ctrls0.wrQLenPdf::57                     0                       # What write queue length does an incoming req see
system.mem_ctrls0.wrQLenPdf::58                     0                       # What write queue length does an incoming req see
system.mem_ctrls0.wrQLenPdf::59                     0                       # What write queue length does an incoming req see
system.mem_ctrls0.wrQLenPdf::60                     0                       # What write queue length does an incoming req see
system.mem_ctrls0.wrQLenPdf::61                     0                       # What write queue length does an incoming req see
system.mem_ctrls0.wrQLenPdf::62                     0                       # What write queue length does an incoming req see
system.mem_ctrls0.wrQLenPdf::63                     0                       # What write queue length does an incoming req see
system.mem_ctrls0.bytesPerActivate::samples         1787                       # Bytes accessed per row activation
system.mem_ctrls0.bytesPerActivate::mean   201.025182                       # Bytes accessed per row activation
system.mem_ctrls0.bytesPerActivate::gmean   118.202180                       # Bytes accessed per row activation
system.mem_ctrls0.bytesPerActivate::stdev   269.087473                       # Bytes accessed per row activation
system.mem_ctrls0.bytesPerActivate::0-127         1062     59.43%     59.43% # Bytes accessed per row activation
system.mem_ctrls0.bytesPerActivate::128-255          354     19.81%     79.24% # Bytes accessed per row activation
system.mem_ctrls0.bytesPerActivate::256-383          109      6.10%     85.34% # Bytes accessed per row activation
system.mem_ctrls0.bytesPerActivate::384-511           46      2.57%     87.91% # Bytes accessed per row activation
system.mem_ctrls0.bytesPerActivate::512-639           27      1.51%     89.42% # Bytes accessed per row activation
system.mem_ctrls0.bytesPerActivate::640-767           26      1.45%     90.88% # Bytes accessed per row activation
system.mem_ctrls0.bytesPerActivate::768-895           29      1.62%     92.50% # Bytes accessed per row activation
system.mem_ctrls0.bytesPerActivate::896-1023           37      2.07%     94.57% # Bytes accessed per row activation
system.mem_ctrls0.bytesPerActivate::1024-1151           97      5.43%    100.00% # Bytes accessed per row activation
system.mem_ctrls0.bytesPerActivate::total         1787                       # Bytes accessed per row activation
system.mem_ctrls0.rdPerTurnAround::samples           42                       # Reads before turning the bus around for writes
system.mem_ctrls0.rdPerTurnAround::mean    207.214286                       # Reads before turning the bus around for writes
system.mem_ctrls0.rdPerTurnAround::stdev   776.717437                       # Reads before turning the bus around for writes
system.mem_ctrls0.rdPerTurnAround::0-255           38     90.48%     90.48% # Reads before turning the bus around for writes
system.mem_ctrls0.rdPerTurnAround::256-511            1      2.38%     92.86% # Reads before turning the bus around for writes
system.mem_ctrls0.rdPerTurnAround::1536-1791            1      2.38%     95.24% # Reads before turning the bus around for writes
system.mem_ctrls0.rdPerTurnAround::2304-2559            1      2.38%     97.62% # Reads before turning the bus around for writes
system.mem_ctrls0.rdPerTurnAround::4096-4351            1      2.38%    100.00% # Reads before turning the bus around for writes
system.mem_ctrls0.rdPerTurnAround::total           42                       # Reads before turning the bus around for writes
system.mem_ctrls0.wrPerTurnAround::samples           42                       # Writes before turning the bus around for reads
system.mem_ctrls0.wrPerTurnAround::mean     18.047619                       # Writes before turning the bus around for reads
system.mem_ctrls0.wrPerTurnAround::gmean    18.045211                       # Writes before turning the bus around for reads
system.mem_ctrls0.wrPerTurnAround::stdev     0.308607                       # Writes before turning the bus around for reads
system.mem_ctrls0.wrPerTurnAround::18              41     97.62%     97.62% # Writes before turning the bus around for reads
system.mem_ctrls0.wrPerTurnAround::20               1      2.38%    100.00% # Writes before turning the bus around for reads
system.mem_ctrls0.wrPerTurnAround::total           42                       # Writes before turning the bus around for reads
system.mem_ctrls0.totQLat                    41797500                       # Total ticks spent queuing
system.mem_ctrls0.totMemAccLat              132828750                       # Total ticks spent from burst creation until serviced by the DRAM
system.mem_ctrls0.totBusLat                  24275000                       # Total ticks spent in databus transfers
system.mem_ctrls0.avgQLat                     8609.17                       # Average queueing delay per DRAM burst
system.mem_ctrls0.avgBusLat                   5000.00                       # Average bus latency per DRAM burst
system.mem_ctrls0.avgMemAccLat               27359.17                       # Average memory access latency per DRAM burst
system.mem_ctrls0.avgRdBW                        0.09                       # Average DRAM read bandwidth in MiByte/s
system.mem_ctrls0.avgWrBW                        0.01                       # Average achieved write bandwidth in MiByte/s
system.mem_ctrls0.avgRdBWSys                     0.09                       # Average system read bandwidth in MiByte/s
system.mem_ctrls0.avgWrBWSys                     0.01                       # Average system write bandwidth in MiByte/s
system.mem_ctrls0.peakBW                     12800.00                       # Theoretical peak bandwidth in MiByte/s
system.mem_ctrls0.busUtil                        0.00                       # Data bus utilization in percentage
system.mem_ctrls0.busUtilRead                    0.00                       # Data bus utilization in percentage for reads
system.mem_ctrls0.busUtilWrite                   0.00                       # Data bus utilization in percentage for writes
system.mem_ctrls0.avgRdQLen                      1.00                       # Average read queue length when enqueuing
system.mem_ctrls0.avgWrQLen                     31.01                       # Average write queue length when enqueuing
system.mem_ctrls0.readRowHits                    3149                       # Number of row buffer hits during reads
system.mem_ctrls0.writeRowHits                    677                       # Number of row buffer hits during writes
system.mem_ctrls0.readRowHitRate                64.86                       # Row buffer hit rate for reads
system.mem_ctrls0.writeRowHitRate               86.46                       # Row buffer hit rate for writes
system.mem_ctrls0.avgGap                 636849492.03                       # Average gap between requests
system.mem_ctrls0.pageHitRate                   67.86                       # Row buffer hit rate, read and write combined
system.mem_ctrls0_0.actEnergy                12897360                       # Energy for activate commands per rank (pJ)
system.mem_ctrls0_0.preEnergy                 7037250                       # Energy for precharge commands per rank (pJ)
system.mem_ctrls0_0.readEnergy               35287200                       # Energy for read commands per rank (pJ)
system.mem_ctrls0_0.writeEnergy               1632960                       # Energy for write commands per rank (pJ)
system.mem_ctrls0_0.refreshEnergy        234948108720                       # Energy for refresh commands per rank (pJ)
system.mem_ctrls0_0.actBackEnergy         80385202755                       # Energy for active background per rank (pJ)
system.mem_ctrls0_0.preBackEnergy        2087774579250                       # Energy for precharge background per rank (pJ)
system.mem_ctrls0_0.totalEnergy          2403164745495                       # Total energy per rank (pJ)
system.mem_ctrls0_0.averagePower           668.075300                       # Core power per rank (mW)
system.mem_ctrls0_0.memoryStateTime::IDLE 3471508808500                       # Time in different power states
system.mem_ctrls0_0.memoryStateTime::REF 120003000000                       # Time in different power states
system.mem_ctrls0_0.memoryStateTime::PRE_PDN            0                       # Time in different power states
system.mem_ctrls0_0.memoryStateTime::ACT   2231865250                       # Time in different power states
system.mem_ctrls0_0.memoryStateTime::ACT_PDN            0                       # Time in different power states
system.mem_ctrls0_1.actEnergy                12247200                       # Energy for activate commands per rank (pJ)
system.mem_ctrls0_1.preEnergy                 6682500                       # Energy for precharge commands per rank (pJ)
system.mem_ctrls0_1.readEnergy               32978400                       # Energy for read commands per rank (pJ)
system.mem_ctrls0_1.writeEnergy               3278880                       # Energy for write commands per rank (pJ)
system.mem_ctrls0_1.refreshEnergy        234948108720                       # Energy for refresh commands per rank (pJ)
system.mem_ctrls0_1.actBackEnergy         80118871110                       # Energy for active background per rank (pJ)
system.mem_ctrls0_1.preBackEnergy        2088008203500                       # Energy for precharge background per rank (pJ)
system.mem_ctrls0_1.totalEnergy          2403130370310                       # Total energy per rank (pJ)
system.mem_ctrls0_1.averagePower           668.065744                       # Core power per rank (mW)
system.mem_ctrls0_1.memoryStateTime::IDLE 3471963890750                       # Time in different power states
system.mem_ctrls0_1.memoryStateTime::REF 120003000000                       # Time in different power states
system.mem_ctrls0_1.memoryStateTime::PRE_PDN            0                       # Time in different power states
system.mem_ctrls0_1.memoryStateTime::ACT   1776783000                       # Time in different power states
system.mem_ctrls0_1.memoryStateTime::ACT_PDN            0                       # Time in different power states
system.mem_ctrls1.bytes_read::ruby.dir_cntrl1       277504                       # Number of bytes read from this memory
system.mem_ctrls1.bytes_read::total            277504                       # Number of bytes read from this memory
system.mem_ctrls1.bytes_written::ruby.dir_cntrl1        48384                       # Number of bytes written to this memory
system.mem_ctrls1.bytes_written::total          48384                       # Number of bytes written to this memory
system.mem_ctrls1.num_reads::ruby.dir_cntrl1         4336                       # Number of read requests responded to by this memory
system.mem_ctrls1.num_reads::total               4336                       # Number of read requests responded to by this memory
system.mem_ctrls1.num_writes::ruby.dir_cntrl1          756                       # Number of write requests responded to by this memory
system.mem_ctrls1.num_writes::total               756                       # Number of write requests responded to by this memory
system.mem_ctrls1.bw_read::ruby.dir_cntrl1        77219                       # Total read bandwidth from this memory (bytes/s)
system.mem_ctrls1.bw_read::total                77219                       # Total read bandwidth from this memory (bytes/s)
system.mem_ctrls1.bw_write::ruby.dir_cntrl1        13463                       # Write bandwidth from this memory (bytes/s)
system.mem_ctrls1.bw_write::total               13463                       # Write bandwidth from this memory (bytes/s)
system.mem_ctrls1.bw_total::ruby.dir_cntrl1        90682                       # Total bandwidth to/from this memory (bytes/s)
system.mem_ctrls1.bw_total::total               90682                       # Total bandwidth to/from this memory (bytes/s)
system.mem_ctrls1.readReqs                       4336                       # Number of read requests accepted
system.mem_ctrls1.writeReqs                       756                       # Number of write requests accepted
system.mem_ctrls1.readBursts                     4336                       # Number of DRAM read bursts, including those serviced by the write queue
system.mem_ctrls1.writeBursts                     756                       # Number of DRAM write bursts, including those merged in the write queue
system.mem_ctrls1.bytesReadDRAM                277376                       # Total number of bytes read from DRAM
system.mem_ctrls1.bytesReadWrQ                    128                       # Total number of bytes read from write queue
system.mem_ctrls1.bytesWritten                  46336                       # Total number of bytes written to DRAM
system.mem_ctrls1.bytesReadSys                 277504                       # Total read bytes from the system interface side
system.mem_ctrls1.bytesWrittenSys               48384                       # Total written bytes from the system interface side
system.mem_ctrls1.servicedByWrQ                     2                       # Number of DRAM read bursts serviced by the write queue
system.mem_ctrls1.mergedWrBursts                    2                       # Number of DRAM write bursts merged with an existing one
system.mem_ctrls1.neitherReadNorWriteReqs            0                       # Number of requests that are neither read nor write
system.mem_ctrls1.perBankRdBursts::0              405                       # Per bank write bursts
system.mem_ctrls1.perBankRdBursts::1              318                       # Per bank write bursts
system.mem_ctrls1.perBankRdBursts::2              385                       # Per bank write bursts
system.mem_ctrls1.perBankRdBursts::3              305                       # Per bank write bursts
system.mem_ctrls1.perBankRdBursts::4              310                       # Per bank write bursts
system.mem_ctrls1.perBankRdBursts::5              313                       # Per bank write bursts
system.mem_ctrls1.perBankRdBursts::6              273                       # Per bank write bursts
system.mem_ctrls1.perBankRdBursts::7              221                       # Per bank write bursts
system.mem_ctrls1.perBankRdBursts::8              267                       # Per bank write bursts
system.mem_ctrls1.perBankRdBursts::9              145                       # Per bank write bursts
system.mem_ctrls1.perBankRdBursts::10             215                       # Per bank write bursts
system.mem_ctrls1.perBankRdBursts::11             324                       # Per bank write bursts
system.mem_ctrls1.perBankRdBursts::12             208                       # Per bank write bursts
system.mem_ctrls1.perBankRdBursts::13             145                       # Per bank write bursts
system.mem_ctrls1.perBankRdBursts::14             187                       # Per bank write bursts
system.mem_ctrls1.perBankRdBursts::15             313                       # Per bank write bursts
system.mem_ctrls1.perBankWrBursts::0              128                       # Per bank write bursts
system.mem_ctrls1.perBankWrBursts::1               96                       # Per bank write bursts
system.mem_ctrls1.perBankWrBursts::2                0                       # Per bank write bursts
system.mem_ctrls1.perBankWrBursts::3                0                       # Per bank write bursts
system.mem_ctrls1.perBankWrBursts::4                0                       # Per bank write bursts
system.mem_ctrls1.perBankWrBursts::5                2                       # Per bank write bursts
system.mem_ctrls1.perBankWrBursts::6               16                       # Per bank write bursts
system.mem_ctrls1.perBankWrBursts::7                0                       # Per bank write bursts
system.mem_ctrls1.perBankWrBursts::8               16                       # Per bank write bursts
system.mem_ctrls1.perBankWrBursts::9               48                       # Per bank write bursts
system.mem_ctrls1.perBankWrBursts::10               1                       # Per bank write bursts
system.mem_ctrls1.perBankWrBursts::11              32                       # Per bank write bursts
system.mem_ctrls1.perBankWrBursts::12              80                       # Per bank write bursts
system.mem_ctrls1.perBankWrBursts::13             128                       # Per bank write bursts
system.mem_ctrls1.perBankWrBursts::14              96                       # Per bank write bursts
system.mem_ctrls1.perBankWrBursts::15              81                       # Per bank write bursts
system.mem_ctrls1.numRdRetry                        0                       # Number of times read queue was full causing retry
system.mem_ctrls1.numWrRetry                        0                       # Number of times write queue was full causing retry
system.mem_ctrls1.totGap                 3593739509500                       # Total gap between requests
system.mem_ctrls1.readPktSize::0                    0                       # Read request sizes (log2)
system.mem_ctrls1.readPktSize::1                    0                       # Read request sizes (log2)
system.mem_ctrls1.readPktSize::2                    0                       # Read request sizes (log2)
system.mem_ctrls1.readPktSize::3                    0                       # Read request sizes (log2)
system.mem_ctrls1.readPktSize::4                    0                       # Read request sizes (log2)
system.mem_ctrls1.readPktSize::5                    0                       # Read request sizes (log2)
system.mem_ctrls1.readPktSize::6                 4336                       # Read request sizes (log2)
system.mem_ctrls1.writePktSize::0                   0                       # Write request sizes (log2)
system.mem_ctrls1.writePktSize::1                   0                       # Write request sizes (log2)
system.mem_ctrls1.writePktSize::2                   0                       # Write request sizes (log2)
system.mem_ctrls1.writePktSize::3                   0                       # Write request sizes (log2)
system.mem_ctrls1.writePktSize::4                   0                       # Write request sizes (log2)
system.mem_ctrls1.writePktSize::5                   0                       # Write request sizes (log2)
system.mem_ctrls1.writePktSize::6                 756                       # Write request sizes (log2)
system.mem_ctrls1.rdQLenPdf::0                   4325                       # What read queue length does an incoming req see
system.mem_ctrls1.rdQLenPdf::1                      9                       # What read queue length does an incoming req see
system.mem_ctrls1.rdQLenPdf::2                      0                       # What read queue length does an incoming req see
system.mem_ctrls1.rdQLenPdf::3                      0                       # What read queue length does an incoming req see
system.mem_ctrls1.rdQLenPdf::4                      0                       # What read queue length does an incoming req see
system.mem_ctrls1.rdQLenPdf::5                      0                       # What read queue length does an incoming req see
system.mem_ctrls1.rdQLenPdf::6                      0                       # What read queue length does an incoming req see
system.mem_ctrls1.rdQLenPdf::7                      0                       # What read queue length does an incoming req see
system.mem_ctrls1.rdQLenPdf::8                      0                       # What read queue length does an incoming req see
system.mem_ctrls1.rdQLenPdf::9                      0                       # What read queue length does an incoming req see
system.mem_ctrls1.rdQLenPdf::10                     0                       # What read queue length does an incoming req see
system.mem_ctrls1.rdQLenPdf::11                     0                       # What read queue length does an incoming req see
system.mem_ctrls1.rdQLenPdf::12                     0                       # What read queue length does an incoming req see
system.mem_ctrls1.rdQLenPdf::13                     0                       # What read queue length does an incoming req see
system.mem_ctrls1.rdQLenPdf::14                     0                       # What read queue length does an incoming req see
system.mem_ctrls1.rdQLenPdf::15                     0                       # What read queue length does an incoming req see
system.mem_ctrls1.rdQLenPdf::16                     0                       # What read queue length does an incoming req see
system.mem_ctrls1.rdQLenPdf::17                     0                       # What read queue length does an incoming req see
system.mem_ctrls1.rdQLenPdf::18                     0                       # What read queue length does an incoming req see
system.mem_ctrls1.rdQLenPdf::19                     0                       # What read queue length does an incoming req see
system.mem_ctrls1.rdQLenPdf::20                     0                       # What read queue length does an incoming req see
system.mem_ctrls1.rdQLenPdf::21                     0                       # What read queue length does an incoming req see
system.mem_ctrls1.rdQLenPdf::22                     0                       # What read queue length does an incoming req see
system.mem_ctrls1.rdQLenPdf::23                     0                       # What read queue length does an incoming req see
system.mem_ctrls1.rdQLenPdf::24                     0                       # What read queue length does an incoming req see
system.mem_ctrls1.rdQLenPdf::25                     0                       # What read queue length does an incoming req see
system.mem_ctrls1.rdQLenPdf::26                     0                       # What read queue length does an incoming req see
system.mem_ctrls1.rdQLenPdf::27                     0                       # What read queue length does an incoming req see
system.mem_ctrls1.rdQLenPdf::28                     0                       # What read queue length does an incoming req see
system.mem_ctrls1.rdQLenPdf::29                     0                       # What read queue length does an incoming req see
system.mem_ctrls1.rdQLenPdf::30                     0                       # What read queue length does an incoming req see
system.mem_ctrls1.rdQLenPdf::31                     0                       # What read queue length does an incoming req see
system.mem_ctrls1.wrQLenPdf::0                      1                       # What write queue length does an incoming req see
system.mem_ctrls1.wrQLenPdf::1                      1                       # What write queue length does an incoming req see
system.mem_ctrls1.wrQLenPdf::2                      1                       # What write queue length does an incoming req see
system.mem_ctrls1.wrQLenPdf::3                      1                       # What write queue length does an incoming req see
system.mem_ctrls1.wrQLenPdf::4                      1                       # What write queue length does an incoming req see
system.mem_ctrls1.wrQLenPdf::5                      1                       # What write queue length does an incoming req see
system.mem_ctrls1.wrQLenPdf::6                      1                       # What write queue length does an incoming req see
system.mem_ctrls1.wrQLenPdf::7                      1                       # What write queue length does an incoming req see
system.mem_ctrls1.wrQLenPdf::8                      1                       # What write queue length does an incoming req see
system.mem_ctrls1.wrQLenPdf::9                      1                       # What write queue length does an incoming req see
system.mem_ctrls1.wrQLenPdf::10                     1                       # What write queue length does an incoming req see
system.mem_ctrls1.wrQLenPdf::11                     1                       # What write queue length does an incoming req see
system.mem_ctrls1.wrQLenPdf::12                     1                       # What write queue length does an incoming req see
system.mem_ctrls1.wrQLenPdf::13                     1                       # What write queue length does an incoming req see
system.mem_ctrls1.wrQLenPdf::14                     1                       # What write queue length does an incoming req see
system.mem_ctrls1.wrQLenPdf::15                    41                       # What write queue length does an incoming req see
system.mem_ctrls1.wrQLenPdf::16                    41                       # What write queue length does an incoming req see
system.mem_ctrls1.wrQLenPdf::17                    41                       # What write queue length does an incoming req see
system.mem_ctrls1.wrQLenPdf::18                    41                       # What write queue length does an incoming req see
system.mem_ctrls1.wrQLenPdf::19                    41                       # What write queue length does an incoming req see
system.mem_ctrls1.wrQLenPdf::20                    42                       # What write queue length does an incoming req see
system.mem_ctrls1.wrQLenPdf::21                    41                       # What write queue length does an incoming req see
system.mem_ctrls1.wrQLenPdf::22                    41                       # What write queue length does an incoming req see
system.mem_ctrls1.wrQLenPdf::23                    41                       # What write queue length does an incoming req see
system.mem_ctrls1.wrQLenPdf::24                    41                       # What write queue length does an incoming req see
system.mem_ctrls1.wrQLenPdf::25                    41                       # What write queue length does an incoming req see
system.mem_ctrls1.wrQLenPdf::26                    41                       # What write queue length does an incoming req see
system.mem_ctrls1.wrQLenPdf::27                    42                       # What write queue length does an incoming req see
system.mem_ctrls1.wrQLenPdf::28                    41                       # What write queue length does an incoming req see
system.mem_ctrls1.wrQLenPdf::29                    41                       # What write queue length does an incoming req see
system.mem_ctrls1.wrQLenPdf::30                    40                       # What write queue length does an incoming req see
system.mem_ctrls1.wrQLenPdf::31                    40                       # What write queue length does an incoming req see
system.mem_ctrls1.wrQLenPdf::32                    40                       # What write queue length does an incoming req see
system.mem_ctrls1.wrQLenPdf::33                     2                       # What write queue length does an incoming req see
system.mem_ctrls1.wrQLenPdf::34                     0                       # What write queue length does an incoming req see
system.mem_ctrls1.wrQLenPdf::35                     0                       # What write queue length does an incoming req see
system.mem_ctrls1.wrQLenPdf::36                     0                       # What write queue length does an incoming req see
system.mem_ctrls1.wrQLenPdf::37                     0                       # What write queue length does an incoming req see
system.mem_ctrls1.wrQLenPdf::38                     0                       # What write queue length does an incoming req see
system.mem_ctrls1.wrQLenPdf::39                     0                       # What write queue length does an incoming req see
system.mem_ctrls1.wrQLenPdf::40                     0                       # What write queue length does an incoming req see
system.mem_ctrls1.wrQLenPdf::41                     0                       # What write queue length does an incoming req see
system.mem_ctrls1.wrQLenPdf::42                     0                       # What write queue length does an incoming req see
system.mem_ctrls1.wrQLenPdf::43                     0                       # What write queue length does an incoming req see
system.mem_ctrls1.wrQLenPdf::44                     0                       # What write queue length does an incoming req see
system.mem_ctrls1.wrQLenPdf::45                     0                       # What write queue length does an incoming req see
system.mem_ctrls1.wrQLenPdf::46                     0                       # What write queue length does an incoming req see
system.mem_ctrls1.wrQLenPdf::47                     0                       # What write queue length does an incoming req see
system.mem_ctrls1.wrQLenPdf::48                     0                       # What write queue length does an incoming req see
system.mem_ctrls1.wrQLenPdf::49                     0                       # What write queue length does an incoming req see
system.mem_ctrls1.wrQLenPdf::50                     0                       # What write queue length does an incoming req see
system.mem_ctrls1.wrQLenPdf::51                     0                       # What write queue length does an incoming req see
system.mem_ctrls1.wrQLenPdf::52                     0                       # What write queue length does an incoming req see
system.mem_ctrls1.wrQLenPdf::53                     0                       # What write queue length does an incoming req see
system.mem_ctrls1.wrQLenPdf::54                     0                       # What write queue length does an incoming req see
system.mem_ctrls1.wrQLenPdf::55                     0                       # What write queue length does an incoming req see
system.mem_ctrls1.wrQLenPdf::56                     0                       # What write queue length does an incoming req see
system.mem_ctrls1.wrQLenPdf::57                     0                       # What write queue length does an incoming req see
system.mem_ctrls1.wrQLenPdf::58                     0                       # What write queue length does an incoming req see
system.mem_ctrls1.wrQLenPdf::59                     0                       # What write queue length does an incoming req see
system.mem_ctrls1.wrQLenPdf::60                     0                       # What write queue length does an incoming req see
system.mem_ctrls1.wrQLenPdf::61                     0                       # What write queue length does an incoming req see
system.mem_ctrls1.wrQLenPdf::62                     0                       # What write queue length does an incoming req see
system.mem_ctrls1.wrQLenPdf::63                     0                       # What write queue length does an incoming req see
system.mem_ctrls1.bytesPerActivate::samples         1560                       # Bytes accessed per row activation
system.mem_ctrls1.bytesPerActivate::mean   207.507692                       # Bytes accessed per row activation
system.mem_ctrls1.bytesPerActivate::gmean   118.619560                       # Bytes accessed per row activation
system.mem_ctrls1.bytesPerActivate::stdev   280.965628                       # Bytes accessed per row activation
system.mem_ctrls1.bytesPerActivate::0-127          945     60.58%     60.58% # Bytes accessed per row activation
system.mem_ctrls1.bytesPerActivate::128-255          285     18.27%     78.85% # Bytes accessed per row activation
system.mem_ctrls1.bytesPerActivate::256-383           82      5.26%     84.10% # Bytes accessed per row activation
system.mem_ctrls1.bytesPerActivate::384-511           39      2.50%     86.60% # Bytes accessed per row activation
system.mem_ctrls1.bytesPerActivate::512-639           23      1.47%     88.08% # Bytes accessed per row activation
system.mem_ctrls1.bytesPerActivate::640-767           29      1.86%     89.94% # Bytes accessed per row activation
system.mem_ctrls1.bytesPerActivate::768-895           27      1.73%     91.67% # Bytes accessed per row activation
system.mem_ctrls1.bytesPerActivate::896-1023           33      2.12%     93.78% # Bytes accessed per row activation
system.mem_ctrls1.bytesPerActivate::1024-1151           97      6.22%    100.00% # Bytes accessed per row activation
system.mem_ctrls1.bytesPerActivate::total         1560                       # Bytes accessed per row activation
system.mem_ctrls1.rdPerTurnAround::samples           40                       # Reads before turning the bus around for writes
system.mem_ctrls1.rdPerTurnAround::mean    165.550000                       # Reads before turning the bus around for writes
system.mem_ctrls1.rdPerTurnAround::stdev   729.845574                       # Reads before turning the bus around for writes
system.mem_ctrls1.rdPerTurnAround::0-255           38     95.00%     95.00% # Reads before turning the bus around for writes
system.mem_ctrls1.rdPerTurnAround::2048-2303            1      2.50%     97.50% # Reads before turning the bus around for writes
system.mem_ctrls1.rdPerTurnAround::4096-4351            1      2.50%    100.00% # Reads before turning the bus around for writes
system.mem_ctrls1.rdPerTurnAround::total           40                       # Reads before turning the bus around for writes
system.mem_ctrls1.wrPerTurnAround::samples           40                       # Writes before turning the bus around for reads
system.mem_ctrls1.wrPerTurnAround::mean     18.100000                       # Writes before turning the bus around for reads
system.mem_ctrls1.wrPerTurnAround::gmean    18.095075                       # Writes before turning the bus around for reads
system.mem_ctrls1.wrPerTurnAround::stdev     0.441443                       # Writes before turning the bus around for reads
system.mem_ctrls1.wrPerTurnAround::18              38     95.00%     95.00% # Writes before turning the bus around for reads
system.mem_ctrls1.wrPerTurnAround::20               2      5.00%    100.00% # Writes before turning the bus around for reads
system.mem_ctrls1.wrPerTurnAround::total           40                       # Writes before turning the bus around for reads
system.mem_ctrls1.totQLat                    36314250                       # Total ticks spent queuing
system.mem_ctrls1.totMemAccLat              117576750                       # Total ticks spent from burst creation until serviced by the DRAM
system.mem_ctrls1.totBusLat                  21670000                       # Total ticks spent in databus transfers
system.mem_ctrls1.avgQLat                     8378.92                       # Average queueing delay per DRAM burst
system.mem_ctrls1.avgBusLat                   5000.00                       # Average bus latency per DRAM burst
system.mem_ctrls1.avgMemAccLat               27128.92                       # Average memory access latency per DRAM burst
system.mem_ctrls1.avgRdBW                        0.08                       # Average DRAM read bandwidth in MiByte/s
system.mem_ctrls1.avgWrBW                        0.01                       # Average achieved write bandwidth in MiByte/s
system.mem_ctrls1.avgRdBWSys                     0.08                       # Average system read bandwidth in MiByte/s
system.mem_ctrls1.avgWrBWSys                     0.01                       # Average system write bandwidth in MiByte/s
system.mem_ctrls1.peakBW                     12800.00                       # Theoretical peak bandwidth in MiByte/s
system.mem_ctrls1.busUtil                        0.00                       # Data bus utilization in percentage
system.mem_ctrls1.busUtilRead                    0.00                       # Data bus utilization in percentage for reads
system.mem_ctrls1.busUtilWrite                   0.00                       # Data bus utilization in percentage for writes
system.mem_ctrls1.avgRdQLen                      1.00                       # Average read queue length when enqueuing
system.mem_ctrls1.avgWrQLen                     24.79                       # Average write queue length when enqueuing
system.mem_ctrls1.readRowHits                    2841                       # Number of row buffer hits during reads
system.mem_ctrls1.writeRowHits                    657                       # Number of row buffer hits during writes
system.mem_ctrls1.readRowHitRate                65.55                       # Row buffer hit rate for reads
system.mem_ctrls1.writeRowHitRate               87.14                       # Row buffer hit rate for writes
system.mem_ctrls1.avgGap                 705761883.25                       # Average gap between requests
system.mem_ctrls1.pageHitRate                   68.75                       # Row buffer hit rate, read and write combined
system.mem_ctrls1_0.actEnergy                12126240                       # Energy for activate commands per rank (pJ)
system.mem_ctrls1_0.preEnergy                 6616500                       # Energy for precharge commands per rank (pJ)
system.mem_ctrls1_0.readEnergy               33212400                       # Energy for read commands per rank (pJ)
system.mem_ctrls1_0.writeEnergy               1568160                       # Energy for write commands per rank (pJ)
system.mem_ctrls1_0.refreshEnergy        234948108720                       # Energy for refresh commands per rank (pJ)
system.mem_ctrls1_0.actBackEnergy         80354941740                       # Energy for active background per rank (pJ)
system.mem_ctrls1_0.preBackEnergy        2087801124000                       # Energy for precharge background per rank (pJ)
system.mem_ctrls1_0.totalEnergy          2403157697760                       # Total energy per rank (pJ)
system.mem_ctrls1_0.averagePower           668.073341                       # Core power per rank (mW)
system.mem_ctrls1_0.memoryStateTime::IDLE 3471550833250                       # Time in different power states
system.mem_ctrls1_0.memoryStateTime::REF 120003000000                       # Time in different power states
system.mem_ctrls1_0.memoryStateTime::PRE_PDN            0                       # Time in different power states
system.mem_ctrls1_0.memoryStateTime::ACT   2185676250                       # Time in different power states
system.mem_ctrls1_0.memoryStateTime::ACT_PDN            0                       # Time in different power states
system.mem_ctrls1_1.actEnergy                11483640                       # Energy for activate commands per rank (pJ)
system.mem_ctrls1_1.preEnergy                 6265875                       # Energy for precharge commands per rank (pJ)
system.mem_ctrls1_1.readEnergy               31090800                       # Energy for read commands per rank (pJ)
system.mem_ctrls1_1.writeEnergy               3123360                       # Energy for write commands per rank (pJ)
system.mem_ctrls1_1.refreshEnergy        234948108720                       # Energy for refresh commands per rank (pJ)
system.mem_ctrls1_1.actBackEnergy         80123863455                       # Energy for active background per rank (pJ)
system.mem_ctrls1_1.preBackEnergy        2088003824250                       # Energy for precharge background per rank (pJ)
system.mem_ctrls1_1.totalEnergy          2403127760100                       # Total energy per rank (pJ)
system.mem_ctrls1_1.averagePower           668.065019                       # Core power per rank (mW)
system.mem_ctrls1_1.memoryStateTime::IDLE 3472023101000                       # Time in different power states
system.mem_ctrls1_1.memoryStateTime::REF 120003000000                       # Time in different power states
system.mem_ctrls1_1.memoryStateTime::PRE_PDN            0                       # Time in different power states
system.mem_ctrls1_1.memoryStateTime::ACT   1717572750                       # Time in different power states
system.mem_ctrls1_1.memoryStateTime::ACT_PDN            0                       # Time in different power states
system.mem_ctrls2.bytes_read::ruby.dir_cntrl2       271296                       # Number of bytes read from this memory
system.mem_ctrls2.bytes_read::total            271296                       # Number of bytes read from this memory
system.mem_ctrls2.bytes_written::ruby.dir_cntrl2        48128                       # Number of bytes written to this memory
system.mem_ctrls2.bytes_written::total          48128                       # Number of bytes written to this memory
system.mem_ctrls2.num_reads::ruby.dir_cntrl2         4239                       # Number of read requests responded to by this memory
system.mem_ctrls2.num_reads::total               4239                       # Number of read requests responded to by this memory
system.mem_ctrls2.num_writes::ruby.dir_cntrl2          752                       # Number of write requests responded to by this memory
system.mem_ctrls2.num_writes::total               752                       # Number of write requests responded to by this memory
system.mem_ctrls2.bw_read::ruby.dir_cntrl2        75491                       # Total read bandwidth from this memory (bytes/s)
system.mem_ctrls2.bw_read::total                75491                       # Total read bandwidth from this memory (bytes/s)
system.mem_ctrls2.bw_write::ruby.dir_cntrl2        13392                       # Write bandwidth from this memory (bytes/s)
system.mem_ctrls2.bw_write::total               13392                       # Write bandwidth from this memory (bytes/s)
system.mem_ctrls2.bw_total::ruby.dir_cntrl2        88883                       # Total bandwidth to/from this memory (bytes/s)
system.mem_ctrls2.bw_total::total               88883                       # Total bandwidth to/from this memory (bytes/s)
system.mem_ctrls2.readReqs                       4239                       # Number of read requests accepted
system.mem_ctrls2.writeReqs                       752                       # Number of write requests accepted
system.mem_ctrls2.readBursts                     4239                       # Number of DRAM read bursts, including those serviced by the write queue
system.mem_ctrls2.writeBursts                     752                       # Number of DRAM write bursts, including those merged in the write queue
system.mem_ctrls2.bytesReadDRAM                271232                       # Total number of bytes read from DRAM
system.mem_ctrls2.bytesReadWrQ                     64                       # Total number of bytes read from write queue
system.mem_ctrls2.bytesWritten                  46272                       # Total number of bytes written to DRAM
system.mem_ctrls2.bytesReadSys                 271296                       # Total read bytes from the system interface side
system.mem_ctrls2.bytesWrittenSys               48128                       # Total written bytes from the system interface side
system.mem_ctrls2.servicedByWrQ                     1                       # Number of DRAM read bursts serviced by the write queue
system.mem_ctrls2.mergedWrBursts                    0                       # Number of DRAM write bursts merged with an existing one
system.mem_ctrls2.neitherReadNorWriteReqs            0                       # Number of requests that are neither read nor write
system.mem_ctrls2.perBankRdBursts::0              410                       # Per bank write bursts
system.mem_ctrls2.perBankRdBursts::1              295                       # Per bank write bursts
system.mem_ctrls2.perBankRdBursts::2              371                       # Per bank write bursts
system.mem_ctrls2.perBankRdBursts::3              310                       # Per bank write bursts
system.mem_ctrls2.perBankRdBursts::4              302                       # Per bank write bursts
system.mem_ctrls2.perBankRdBursts::5              306                       # Per bank write bursts
system.mem_ctrls2.perBankRdBursts::6              260                       # Per bank write bursts
system.mem_ctrls2.perBankRdBursts::7              211                       # Per bank write bursts
system.mem_ctrls2.perBankRdBursts::8              257                       # Per bank write bursts
system.mem_ctrls2.perBankRdBursts::9              149                       # Per bank write bursts
system.mem_ctrls2.perBankRdBursts::10             191                       # Per bank write bursts
system.mem_ctrls2.perBankRdBursts::11             306                       # Per bank write bursts
system.mem_ctrls2.perBankRdBursts::12             218                       # Per bank write bursts
system.mem_ctrls2.perBankRdBursts::13             146                       # Per bank write bursts
system.mem_ctrls2.perBankRdBursts::14             190                       # Per bank write bursts
system.mem_ctrls2.perBankRdBursts::15             316                       # Per bank write bursts
system.mem_ctrls2.perBankWrBursts::0              128                       # Per bank write bursts
system.mem_ctrls2.perBankWrBursts::1               96                       # Per bank write bursts
system.mem_ctrls2.perBankWrBursts::2                0                       # Per bank write bursts
system.mem_ctrls2.perBankWrBursts::3                0                       # Per bank write bursts
system.mem_ctrls2.perBankWrBursts::4                0                       # Per bank write bursts
system.mem_ctrls2.perBankWrBursts::5                1                       # Per bank write bursts
system.mem_ctrls2.perBankWrBursts::6               16                       # Per bank write bursts
system.mem_ctrls2.perBankWrBursts::7                0                       # Per bank write bursts
system.mem_ctrls2.perBankWrBursts::8               16                       # Per bank write bursts
system.mem_ctrls2.perBankWrBursts::9               48                       # Per bank write bursts
system.mem_ctrls2.perBankWrBursts::10              14                       # Per bank write bursts
system.mem_ctrls2.perBankWrBursts::11              32                       # Per bank write bursts
system.mem_ctrls2.perBankWrBursts::12              80                       # Per bank write bursts
system.mem_ctrls2.perBankWrBursts::13             129                       # Per bank write bursts
system.mem_ctrls2.perBankWrBursts::14              97                       # Per bank write bursts
system.mem_ctrls2.perBankWrBursts::15              66                       # Per bank write bursts
system.mem_ctrls2.numRdRetry                        0                       # Number of times read queue was full causing retry
system.mem_ctrls2.numWrRetry                        0                       # Number of times write queue was full causing retry
system.mem_ctrls2.totGap                 3593739227500                       # Total gap between requests
system.mem_ctrls2.readPktSize::0                    0                       # Read request sizes (log2)
system.mem_ctrls2.readPktSize::1                    0                       # Read request sizes (log2)
system.mem_ctrls2.readPktSize::2                    0                       # Read request sizes (log2)
system.mem_ctrls2.readPktSize::3                    0                       # Read request sizes (log2)
system.mem_ctrls2.readPktSize::4                    0                       # Read request sizes (log2)
system.mem_ctrls2.readPktSize::5                    0                       # Read request sizes (log2)
system.mem_ctrls2.readPktSize::6                 4239                       # Read request sizes (log2)
system.mem_ctrls2.writePktSize::0                   0                       # Write request sizes (log2)
system.mem_ctrls2.writePktSize::1                   0                       # Write request sizes (log2)
system.mem_ctrls2.writePktSize::2                   0                       # Write request sizes (log2)
system.mem_ctrls2.writePktSize::3                   0                       # Write request sizes (log2)
system.mem_ctrls2.writePktSize::4                   0                       # Write request sizes (log2)
system.mem_ctrls2.writePktSize::5                   0                       # Write request sizes (log2)
system.mem_ctrls2.writePktSize::6                 752                       # Write request sizes (log2)
system.mem_ctrls2.rdQLenPdf::0                   4232                       # What read queue length does an incoming req see
system.mem_ctrls2.rdQLenPdf::1                      6                       # What read queue length does an incoming req see
system.mem_ctrls2.rdQLenPdf::2                      0                       # What read queue length does an incoming req see
system.mem_ctrls2.rdQLenPdf::3                      0                       # What read queue length does an incoming req see
system.mem_ctrls2.rdQLenPdf::4                      0                       # What read queue length does an incoming req see
system.mem_ctrls2.rdQLenPdf::5                      0                       # What read queue length does an incoming req see
system.mem_ctrls2.rdQLenPdf::6                      0                       # What read queue length does an incoming req see
system.mem_ctrls2.rdQLenPdf::7                      0                       # What read queue length does an incoming req see
system.mem_ctrls2.rdQLenPdf::8                      0                       # What read queue length does an incoming req see
system.mem_ctrls2.rdQLenPdf::9                      0                       # What read queue length does an incoming req see
system.mem_ctrls2.rdQLenPdf::10                     0                       # What read queue length does an incoming req see
system.mem_ctrls2.rdQLenPdf::11                     0                       # What read queue length does an incoming req see
system.mem_ctrls2.rdQLenPdf::12                     0                       # What read queue length does an incoming req see
system.mem_ctrls2.rdQLenPdf::13                     0                       # What read queue length does an incoming req see
system.mem_ctrls2.rdQLenPdf::14                     0                       # What read queue length does an incoming req see
system.mem_ctrls2.rdQLenPdf::15                     0                       # What read queue length does an incoming req see
system.mem_ctrls2.rdQLenPdf::16                     0                       # What read queue length does an incoming req see
system.mem_ctrls2.rdQLenPdf::17                     0                       # What read queue length does an incoming req see
system.mem_ctrls2.rdQLenPdf::18                     0                       # What read queue length does an incoming req see
system.mem_ctrls2.rdQLenPdf::19                     0                       # What read queue length does an incoming req see
system.mem_ctrls2.rdQLenPdf::20                     0                       # What read queue length does an incoming req see
system.mem_ctrls2.rdQLenPdf::21                     0                       # What read queue length does an incoming req see
system.mem_ctrls2.rdQLenPdf::22                     0                       # What read queue length does an incoming req see
system.mem_ctrls2.rdQLenPdf::23                     0                       # What read queue length does an incoming req see
system.mem_ctrls2.rdQLenPdf::24                     0                       # What read queue length does an incoming req see
system.mem_ctrls2.rdQLenPdf::25                     0                       # What read queue length does an incoming req see
system.mem_ctrls2.rdQLenPdf::26                     0                       # What read queue length does an incoming req see
system.mem_ctrls2.rdQLenPdf::27                     0                       # What read queue length does an incoming req see
system.mem_ctrls2.rdQLenPdf::28                     0                       # What read queue length does an incoming req see
system.mem_ctrls2.rdQLenPdf::29                     0                       # What read queue length does an incoming req see
system.mem_ctrls2.rdQLenPdf::30                     0                       # What read queue length does an incoming req see
system.mem_ctrls2.rdQLenPdf::31                     0                       # What read queue length does an incoming req see
system.mem_ctrls2.wrQLenPdf::0                      0                       # What write queue length does an incoming req see
system.mem_ctrls2.wrQLenPdf::1                      1                       # What write queue length does an incoming req see
system.mem_ctrls2.wrQLenPdf::2                      1                       # What write queue length does an incoming req see
system.mem_ctrls2.wrQLenPdf::3                      1                       # What write queue length does an incoming req see
system.mem_ctrls2.wrQLenPdf::4                      1                       # What write queue length does an incoming req see
system.mem_ctrls2.wrQLenPdf::5                      1                       # What write queue length does an incoming req see
system.mem_ctrls2.wrQLenPdf::6                      1                       # What write queue length does an incoming req see
system.mem_ctrls2.wrQLenPdf::7                      1                       # What write queue length does an incoming req see
system.mem_ctrls2.wrQLenPdf::8                      1                       # What write queue length does an incoming req see
system.mem_ctrls2.wrQLenPdf::9                      1                       # What write queue length does an incoming req see
system.mem_ctrls2.wrQLenPdf::10                     1                       # What write queue length does an incoming req see
system.mem_ctrls2.wrQLenPdf::11                     1                       # What write queue length does an incoming req see
system.mem_ctrls2.wrQLenPdf::12                     1                       # What write queue length does an incoming req see
system.mem_ctrls2.wrQLenPdf::13                     1                       # What write queue length does an incoming req see
system.mem_ctrls2.wrQLenPdf::14                     1                       # What write queue length does an incoming req see
system.mem_ctrls2.wrQLenPdf::15                    41                       # What write queue length does an incoming req see
system.mem_ctrls2.wrQLenPdf::16                    43                       # What write queue length does an incoming req see
system.mem_ctrls2.wrQLenPdf::17                    41                       # What write queue length does an incoming req see
system.mem_ctrls2.wrQLenPdf::18                    41                       # What write queue length does an incoming req see
system.mem_ctrls2.wrQLenPdf::19                    41                       # What write queue length does an incoming req see
system.mem_ctrls2.wrQLenPdf::20                    41                       # What write queue length does an incoming req see
system.mem_ctrls2.wrQLenPdf::21                    41                       # What write queue length does an incoming req see
system.mem_ctrls2.wrQLenPdf::22                    41                       # What write queue length does an incoming req see
system.mem_ctrls2.wrQLenPdf::23                    41                       # What write queue length does an incoming req see
system.mem_ctrls2.wrQLenPdf::24                    41                       # What write queue length does an incoming req see
system.mem_ctrls2.wrQLenPdf::25                    41                       # What write queue length does an incoming req see
system.mem_ctrls2.wrQLenPdf::26                    41                       # What write queue length does an incoming req see
system.mem_ctrls2.wrQLenPdf::27                    41                       # What write queue length does an incoming req see
system.mem_ctrls2.wrQLenPdf::28                    41                       # What write queue length does an incoming req see
system.mem_ctrls2.wrQLenPdf::29                    41                       # What write queue length does an incoming req see
system.mem_ctrls2.wrQLenPdf::30                    40                       # What write queue length does an incoming req see
system.mem_ctrls2.wrQLenPdf::31                    40                       # What write queue length does an incoming req see
system.mem_ctrls2.wrQLenPdf::32                    40                       # What write queue length does an incoming req see
system.mem_ctrls2.wrQLenPdf::33                     1                       # What write queue length does an incoming req see
system.mem_ctrls2.wrQLenPdf::34                     0                       # What write queue length does an incoming req see
system.mem_ctrls2.wrQLenPdf::35                     0                       # What write queue length does an incoming req see
system.mem_ctrls2.wrQLenPdf::36                     0                       # What write queue length does an incoming req see
system.mem_ctrls2.wrQLenPdf::37                     0                       # What write queue length does an incoming req see
system.mem_ctrls2.wrQLenPdf::38                     0                       # What write queue length does an incoming req see
system.mem_ctrls2.wrQLenPdf::39                     0                       # What write queue length does an incoming req see
system.mem_ctrls2.wrQLenPdf::40                     0                       # What write queue length does an incoming req see
system.mem_ctrls2.wrQLenPdf::41                     0                       # What write queue length does an incoming req see
system.mem_ctrls2.wrQLenPdf::42                     0                       # What write queue length does an incoming req see
system.mem_ctrls2.wrQLenPdf::43                     0                       # What write queue length does an incoming req see
system.mem_ctrls2.wrQLenPdf::44                     0                       # What write queue length does an incoming req see
system.mem_ctrls2.wrQLenPdf::45                     0                       # What write queue length does an incoming req see
system.mem_ctrls2.wrQLenPdf::46                     0                       # What write queue length does an incoming req see
system.mem_ctrls2.wrQLenPdf::47                     0                       # What write queue length does an incoming req see
system.mem_ctrls2.wrQLenPdf::48                     0                       # What write queue length does an incoming req see
system.mem_ctrls2.wrQLenPdf::49                     0                       # What write queue length does an incoming req see
system.mem_ctrls2.wrQLenPdf::50                     0                       # What write queue length does an incoming req see
[...]
system.ruby.L1Cache_Controller.O.L2_Replacement::total          339                      
system.ruby.L1Cache_Controller.O.L1_to_L2 |       21052     38.38%     38.38% |        2046      3.73%     42.11% |       11696     21.32%     63.43% |       20057     36.57%    100.00%
system.ruby.L1Cache_Controller.O.L1_to_L2::total        54851                      
system.ruby.L1Cache_Controller.O.Trigger_L2_to_L1D |        2262     27.39%     27.39% |         919     11.13%     38.52% |        2331     28.22%     66.74% |        2747     33.26%    100.00%
system.ruby.L1Cache_Controller.O.Trigger_L2_to_L1D::total         8259                      
system.ruby.L1Cache_Controller.O.Trigger_L2_to_L1I |       18119     40.36%     40.36% |         896      2.00%     42.36% |        9366     20.86%     63.22% |       16513     36.78%    100.00%
system.ruby.L1Cache_Controller.O.Trigger_L2_to_L1I::total        44894                      
system.ruby.L1Cache_Controller.O.Other_GETX |        4414     21.28%     21.28% |        5282     25.47%     46.75% |        6765     32.62%     79.37% |        4278     20.63%    100.00%
system.ruby.L1Cache_Controller.O.Other_GETX::total        20739                      
system.ruby.L1Cache_Controller.O.Other_GETS |       11388     35.27%     35.27% |        7626     23.62%     58.89% |        8122     25.15%     84.04% |        5154     15.96%    100.00%
system.ruby.L1Cache_Controller.O.Other_GETS::total        32290                      
system.ruby.L1Cache_Controller.M.Load    |     1543452      2.85%      2.85% |    52318322     96.63%     99.49% |      127210      0.23%     99.72% |      151205      0.28%    100.00%
system.ruby.L1Cache_Controller.M.Load::total     54140189                      
system.ruby.L1Cache_Controller.M.Ifetch  |    21615152     31.59%     31.59% |    45308772     66.21%     97.79% |     1227056      1.79%     99.59% |      283423      0.41%    100.00%
system.ruby.L1Cache_Controller.M.Ifetch::total     68434403                      
system.ruby.L1Cache_Controller.M.Store   |        1926     12.34%     12.34% |        6289     40.31%     52.65% |        2510     16.09%     68.74% |        4878     31.26%    100.00%
system.ruby.L1Cache_Controller.M.Store::total        15603                      
system.ruby.L1Cache_Controller.M.L2_Replacement |           7      1.24%      1.24% |         266     47.00%     48.23% |           7      1.24%     49.47% |         286     50.53%    100.00%
system.ruby.L1Cache_Controller.M.L2_Replacement::total          566                      
system.ruby.L1Cache_Controller.M.L1_to_L2 |       27045     16.90%     16.90% |      113892     71.18%     88.08% |        6462      4.04%     92.12% |       12608      7.88%    100.00%
system.ruby.L1Cache_Controller.M.L1_to_L2::total       160007                      
system.ruby.L1Cache_Controller.M.Trigger_L2_to_L1D |        9423      7.98%      7.98% |      103726     87.87%     95.85% |        1441      1.22%     97.07% |        3459      2.93%    100.00%
system.ruby.L1Cache_Controller.M.Trigger_L2_to_L1D::total       118049                      
system.ruby.L1Cache_Controller.M.Trigger_L2_to_L1I |       15063     64.82%     64.82% |        4838     20.82%     85.64% |        1237      5.32%     90.96% |        2100      9.04%    100.00%
system.ruby.L1Cache_Controller.M.Trigger_L2_to_L1I::total        23238                      
system.ruby.L1Cache_Controller.M.Other_GETX |         302      9.77%      9.77% |        1161     37.55%     47.32% |         895     28.95%     76.26% |         734     23.74%    100.00%
system.ruby.L1Cache_Controller.M.Other_GETX::total         3092                      
system.ruby.L1Cache_Controller.M.Other_GETS |        7850     27.45%     27.45% |        5694     19.91%     47.35% |        7943     27.77%     75.12% |        7115     24.88%    100.00%
system.ruby.L1Cache_Controller.M.Other_GETS::total        28602                      
system.ruby.L1Cache_Controller.M.Merged_GETS |           4      5.41%      5.41% |          20     27.03%     32.43% |          45     60.81%     93.24% |           5      6.76%    100.00%
system.ruby.L1Cache_Controller.M.Merged_GETS::total           74                      
system.ruby.L1Cache_Controller.MM.Load   |     3752179      1.03%      1.03% |   357761302     98.43%     99.46% |      902543      0.25%     99.71% |     1062809      0.29%    100.00%
system.ruby.L1Cache_Controller.MM.Load::total    363478833                      
system.ruby.L1Cache_Controller.MM.Store  |     2223037      1.26%      1.26% |   171568443     97.58%     98.84% |      976586      0.56%     99.40% |     1060569      0.60%    100.00%
system.ruby.L1Cache_Controller.MM.Store::total    175828635                      
system.ruby.L1Cache_Controller.MM.L2_Replacement |          31      0.88%      0.88% |        3006     85.62%     86.50% |          38      1.08%     87.58% |         436     12.42%    100.00%
system.ruby.L1Cache_Controller.MM.L2_Replacement::total         3511                      
system.ruby.L1Cache_Controller.MM.L1_to_L2 |       20485      1.44%      1.44% |     1351243     95.24%     96.69% |       19221      1.35%     98.04% |       27806      1.96%    100.00%
system.ruby.L1Cache_Controller.MM.L1_to_L2::total      1418755                      
system.ruby.L1Cache_Controller.MM.Trigger_L2_to_L1D |       14695      1.08%      1.08% |     1326734     97.30%     98.38% |        9415      0.69%     99.07% |       12636      0.93%    100.00%
system.ruby.L1Cache_Controller.MM.Trigger_L2_to_L1D::total      1363480                      
system.ruby.L1Cache_Controller.MM.Other_GETX |        4969     29.64%     29.64% |        3248     19.37%     49.01% |        4417     26.35%     75.36% |        4131     24.64%    100.00%
system.ruby.L1Cache_Controller.MM.Other_GETX::total        16765                      
system.ruby.L1Cache_Controller.MM.Other_GETS |       10175     31.00%     31.00% |        6564     20.00%     51.00% |        8631     26.30%     77.30% |        7449     22.70%    100.00%
system.ruby.L1Cache_Controller.MM.Other_GETS::total        32819                      
system.ruby.L1Cache_Controller.MM.Merged_GETS |         224     30.31%     30.31% |         254     34.37%     64.68% |         221     29.91%     94.59% |          40      5.41%    100.00%
system.ruby.L1Cache_Controller.MM.Merged_GETS::total          739                      
system.ruby.L1Cache_Controller.SR.Load   |        4223      0.42%      0.42% |      982268     98.48%     98.90% |        3795      0.38%     99.28% |        7173      0.72%    100.00%
system.ruby.L1Cache_Controller.SR.Load::total       997459                      
system.ruby.L1Cache_Controller.SR.Ifetch |       28406      2.20%      2.20% |     1197426     92.86%     95.06% |       28902      2.24%     97.31% |       34745      2.69%    100.00%
system.ruby.L1Cache_Controller.SR.Ifetch::total      1289479                      
system.ruby.L1Cache_Controller.SR.Store  |          30      9.90%      9.90% |         143     47.19%     57.10% |          24      7.92%     65.02% |         106     34.98%    100.00%
system.ruby.L1Cache_Controller.SR.Store::total          303                      
system.ruby.L1Cache_Controller.OR.Load   |        2117     26.62%     26.62% |         913     11.48%     38.09% |        2263     28.45%     66.55% |        2661     33.45%    100.00%
system.ruby.L1Cache_Controller.OR.Load::total         7954                      
system.ruby.L1Cache_Controller.OR.Ifetch |       18119     40.36%     40.36% |         896      2.00%     42.36% |        9366     20.86%     63.22% |       16513     36.78%    100.00%
system.ruby.L1Cache_Controller.OR.Ifetch::total        44894                      
system.ruby.L1Cache_Controller.OR.Store  |         145     47.54%     47.54% |           6      1.97%     49.51% |          68     22.30%     71.80% |          86     28.20%    100.00%
system.ruby.L1Cache_Controller.OR.Store::total          305                      
system.ruby.L1Cache_Controller.MR.Load   |        9312      8.01%      8.01% |      103162     88.78%     96.79% |        1204      1.04%     97.83% |        2522      2.17%    100.00%
system.ruby.L1Cache_Controller.MR.Load::total       116200                      
system.ruby.L1Cache_Controller.MR.Ifetch |       15063     64.82%     64.82% |        4838     20.82%     85.64% |        1237      5.32%     90.96% |        2100      9.04%    100.00%
system.ruby.L1Cache_Controller.MR.Ifetch::total        23238                      
system.ruby.L1Cache_Controller.MR.Store  |         111      6.00%      6.00% |         564     30.50%     36.51% |         237     12.82%     49.32% |         937     50.68%    100.00%
system.ruby.L1Cache_Controller.MR.Store::total         1849                      
system.ruby.L1Cache_Controller.MMR.Load  |        3145      0.84%      0.84% |      358024     96.00%     96.84% |        4881      1.31%     98.15% |        6908      1.85%    100.00%
system.ruby.L1Cache_Controller.MMR.Load::total       372958                      
system.ruby.L1Cache_Controller.MMR.Store |       11550      1.17%      1.17% |      968710     97.80%     98.96% |        4534      0.46%     99.42% |        5728      0.58%    100.00%
system.ruby.L1Cache_Controller.MMR.Store::total       990522                      
system.ruby.L1Cache_Controller.IM.Ack    |       10930     11.60%     11.60% |       35804     37.99%     49.59% |       22166     23.52%     73.11% |       25341     26.89%    100.00%
system.ruby.L1Cache_Controller.IM.Ack::total        94241                      
system.ruby.L1Cache_Controller.IM.Data   |        3396     43.53%     43.53% |        1140     14.61%     58.14% |        1602     20.53%     78.67% |        1664     21.33%    100.00%
system.ruby.L1Cache_Controller.IM.Data::total         7802                      
system.ruby.L1Cache_Controller.IM.Exclusive_Data |        4461     10.86%     10.86% |       16823     40.94%     51.80% |        8283     20.16%     71.95% |       11525     28.05%    100.00%
system.ruby.L1Cache_Controller.IM.Exclusive_Data::total        41092                      
system.ruby.L1Cache_Controller.SM.Ack    |        2151     25.53%     25.53% |        2506     29.74%     55.28% |        2368     28.11%     83.38% |        1400     16.62%    100.00%
system.ruby.L1Cache_Controller.SM.Ack::total         8425                      
system.ruby.L1Cache_Controller.SM.Data   |        4605     35.60%     35.60% |        3134     24.23%     59.83% |        2254     17.42%     77.25% |        2943     22.75%    100.00%
system.ruby.L1Cache_Controller.SM.Data::total        12936                      
system.ruby.L1Cache_Controller.OM.Ack    |         507     29.70%     29.70% |         234     13.71%     43.41% |         453     26.54%     69.95% |         513     30.05%    100.00%
system.ruby.L1Cache_Controller.OM.Ack::total         1707                      
system.ruby.L1Cache_Controller.OM.All_acks_no_sharers |         169     29.70%     29.70% |          78     13.71%     43.41% |         151     26.54%     69.95% |         171     30.05%    100.00%
system.ruby.L1Cache_Controller.OM.All_acks_no_sharers::total          569                      
system.ruby.L1Cache_Controller.ISM.Ack   |       12835     49.03%     49.03% |        4735     18.09%     67.12% |        2282      8.72%     75.84% |        6325     24.16%    100.00%
system.ruby.L1Cache_Controller.ISM.Ack::total        26177                      
system.ruby.L1Cache_Controller.ISM.All_acks_no_sharers |        8001     38.58%     38.58% |        4274     20.61%     59.19% |        3856     18.59%     77.78% |        4607     22.22%    100.00%
system.ruby.L1Cache_Controller.ISM.All_acks_no_sharers::total        20738                      
system.ruby.L1Cache_Controller.M_W.Load  |          43     12.43%     12.43% |         116     33.53%     45.95% |         122     35.26%     81.21% |          65     18.79%    100.00%
system.ruby.L1Cache_Controller.M_W.Load::total          346                      
system.ruby.L1Cache_Controller.M_W.Store |           1      0.74%      0.74% |          32     23.70%     24.44% |          80     59.26%     83.70% |          22     16.30%    100.00%
system.ruby.L1Cache_Controller.M_W.Store::total          135                      
system.ruby.L1Cache_Controller.M_W.Ack   |        3492     11.27%     11.27% |       11249     36.32%     47.59% |       10310     33.29%     80.88% |        5921     19.12%    100.00%
system.ruby.L1Cache_Controller.M_W.Ack::total        30972                      
system.ruby.L1Cache_Controller.M_W.All_acks_no_sharers |        9460     17.43%     17.43% |       15475     28.51%     45.94% |       12335     22.73%     68.67% |       17007     31.33%    100.00%
system.ruby.L1Cache_Controller.M_W.All_acks_no_sharers::total        54277                      
system.ruby.L1Cache_Controller.MM_W.Store |         634     11.11%     11.11% |        2127     37.28%     48.39% |         949     16.63%     65.02% |        1996     34.98%    100.00%
system.ruby.L1Cache_Controller.MM_W.Store::total         5706                      
system.ruby.L1Cache_Controller.MM_W.Ack  |        1483      8.65%      8.65% |        8425     49.14%     57.79% |        2534     14.78%     72.57% |        4704     27.43%    100.00%
system.ruby.L1Cache_Controller.MM_W.Ack::total        17146                      
system.ruby.L1Cache_Controller.MM_W.All_acks_no_sharers |        4462     10.82%     10.82% |       16855     40.88%     51.71% |        8363     20.29%     71.99% |       11547     28.01%    100.00%
system.ruby.L1Cache_Controller.MM_W.All_acks_no_sharers::total        41227                      
system.ruby.L1Cache_Controller.IS.Other_GETS |           0      0.00%      0.00% |           0      0.00%      0.00% |           0      0.00%      0.00% |           1    100.00%    100.00%
system.ruby.L1Cache_Controller.IS.Other_GETS::total            1                      
system.ruby.L1Cache_Controller.IS.Ack    |       31427     21.65%     21.65% |       31533     21.73%     43.38% |       29172     20.10%     63.48% |       52999     36.52%    100.00%
system.ruby.L1Cache_Controller.IS.Ack::total       145131                      
system.ruby.L1Cache_Controller.IS.Shared_Ack |        2881     19.12%     19.12% |        6000     39.81%     58.93% |        2956     19.61%     78.54% |        3234     21.46%    100.00%
system.ruby.L1Cache_Controller.IS.Shared_Ack::total        15071                      
system.ruby.L1Cache_Controller.IS.Data   |           6      5.04%      5.04% |          51     42.86%     47.90% |          15     12.61%     60.50% |          47     39.50%    100.00%
system.ruby.L1Cache_Controller.IS.Data::total          119                      
system.ruby.L1Cache_Controller.IS.Shared_Data |       13641     22.11%     22.11% |       13376     21.68%     43.78% |       13531     21.93%     65.71% |       21159     34.29%    100.00%
system.ruby.L1Cache_Controller.IS.Shared_Data::total        61707                      
system.ruby.L1Cache_Controller.IS.Exclusive_Data |        9461     17.39%     17.39% |       15507     28.50%     45.89% |       12415     22.82%     68.70% |       17029     31.30%    100.00%
system.ruby.L1Cache_Controller.IS.Exclusive_Data::total        54412                      
system.ruby.L1Cache_Controller.SS.Load   |           6      0.53%      0.53% |         207     18.42%     18.95% |          20      1.78%     20.73% |         891     79.27%    100.00%
system.ruby.L1Cache_Controller.SS.Load::total         1124                      
system.ruby.L1Cache_Controller.SS.Ifetch |         590      6.09%      6.09% |        4247     43.86%     49.95% |         893      9.22%     59.17% |        3954     40.83%    100.00%
system.ruby.L1Cache_Controller.SS.Ifetch::total         9684                      
system.ruby.L1Cache_Controller.SS.Store  |           0      0.00%      0.00% |           9     23.08%     23.08% |          29     74.36%     97.44% |           1      2.56%    100.00%
system.ruby.L1Cache_Controller.SS.Store::total           39                      
system.ruby.L1Cache_Controller.SS.Ack    |        3262      9.86%      9.86% |        6608     19.96%     29.82% |       11500     34.75%     64.57% |       11728     35.43%    100.00%
system.ruby.L1Cache_Controller.SS.Ack::total        33098                      
system.ruby.L1Cache_Controller.SS.Shared_Ack |        8041     28.55%     28.55% |        9138     32.45%     61.00% |        1113      3.95%     64.96% |        9868     35.04%    100.00%
system.ruby.L1Cache_Controller.SS.Shared_Ack::total        28160                      
system.ruby.L1Cache_Controller.SS.All_acks |       13647     22.07%     22.07% |       13427     21.72%     43.79% |       13546     21.91%     65.70% |       21204     34.30%    100.00%
system.ruby.L1Cache_Controller.SS.All_acks::total        61824                      
system.ruby.L1Cache_Controller.SS.All_acks_no_sharers |           0      0.00%      0.00% |           0      0.00%      0.00% |           0      0.00%      0.00% |           2    100.00%    100.00%
system.ruby.L1Cache_Controller.SS.All_acks_no_sharers::total            2                      
system.ruby.L1Cache_Controller.OI.Store  |           0      0.00%      0.00% |           0      0.00%      0.00% |           1    100.00%    100.00% |           0      0.00%    100.00%
system.ruby.L1Cache_Controller.OI.Store::total            1                      
system.ruby.L1Cache_Controller.OI.Writeback_Ack |          89     26.25%     26.25% |         102     30.09%     56.34% |          23      6.78%     63.13% |         125     36.87%    100.00%
system.ruby.L1Cache_Controller.OI.Writeback_Ack::total          339                      
system.ruby.L1Cache_Controller.MI.Load   |           0      0.00%      0.00% |           7    100.00%    100.00% |           0      0.00%    100.00% |           0      0.00%    100.00%
system.ruby.L1Cache_Controller.MI.Load::total            7                      
system.ruby.L1Cache_Controller.MI.Store  |           0      0.00%      0.00% |           1    100.00%    100.00% |           0      0.00%    100.00% |           0      0.00%    100.00%
system.ruby.L1Cache_Controller.MI.Store::total            1                      
system.ruby.L1Cache_Controller.MI.Writeback_Ack |          38      0.93%      0.93% |        3272     80.26%     81.19% |          45      1.10%     82.29% |         722     17.71%    100.00%
system.ruby.L1Cache_Controller.MI.Writeback_Ack::total         4077                      
system.ruby.L1Cache_Controller.ST.Complete_L2_to_L1 |       32659      1.43%      1.43% |     2179837     95.30%     96.73% |       32721      1.43%     98.16% |       42024      1.84%    100.00%
system.ruby.L1Cache_Controller.ST.Complete_L2_to_L1::total      2287241                      
system.ruby.L1Cache_Controller.OT.Complete_L2_to_L1 |       20381     38.34%     38.34% |        1815      3.41%     41.76% |       11697     22.01%     63.76% |       19260     36.24%    100.00%
system.ruby.L1Cache_Controller.OT.Complete_L2_to_L1::total        53153                      
system.ruby.L1Cache_Controller.MT.Complete_L2_to_L1 |       24486     17.33%     17.33% |      108564     76.84%     94.17% |        2678      1.90%     96.07% |        5559      3.93%    100.00%
system.ruby.L1Cache_Controller.MT.Complete_L2_to_L1::total       141287                      
system.ruby.L1Cache_Controller.MMT.Complete_L2_to_L1 |       14695      1.08%      1.08% |     1326734     97.30%     98.38% |        9415      0.69%     99.07% |       12636      0.93%    100.00%
system.ruby.L1Cache_Controller.MMT.Complete_L2_to_L1::total      1363480                      

---------- End Simulation Statistics   ----------
