
---------- Begin Simulation Statistics ----------
sim_seconds                                  2.456114                       # Number of seconds simulated
sim_ticks                                2456113541000                       # Number of ticks simulated
final_tick                               57405560307001                       # Number of ticks from beginning of simulation (restored from checkpoints and never reset)
sim_freq                                 1000000000000                       # Frequency of simulated ticks
host_inst_rate                                 141301                       # Simulator instruction rate (inst/s)
host_op_rate                                   256143                       # Simulator op (including micro ops) rate (op/s)
host_tick_rate                              264234358                       # Simulator tick rate (ticks/s)
host_mem_usage                                2007352                       # Number of bytes of host memory used
host_seconds                                  9295.21                       # Real time elapsed on the host
sim_insts                                  1313426290                       # Number of instructions simulated
sim_ops                                    2380902990                       # Number of ops (including micro ops) simulated
system.voltage_domain.voltage                       1                       # Voltage in Volts
system.clk_domain.clock                          1000                       # Clock period in ticks
system.mem_ctrls.bytes_read::ruby.dir_cntrl0     63991488                       # Number of bytes read from this memory
system.mem_ctrls.bytes_read::total           63991488                       # Number of bytes read from this memory
system.mem_ctrls.bytes_written::ruby.dir_cntrl0     34048224                       # Number of bytes written to this memory
system.mem_ctrls.bytes_written::total        34048224                       # Number of bytes written to this memory
system.mem_ctrls.num_reads::ruby.dir_cntrl0      1999734                       # Number of read requests responded to by this memory
system.mem_ctrls.num_reads::total             1999734                       # Number of read requests responded to by this memory
system.mem_ctrls.num_writes::ruby.dir_cntrl0      1064007                       # Number of write requests responded to by this memory
system.mem_ctrls.num_writes::total            1064007                       # Number of write requests responded to by this memory
system.mem_ctrls.bw_read::ruby.dir_cntrl0     26053962                       # Total read bandwidth from this memory (bytes/s)
system.mem_ctrls.bw_read::total              26053962                       # Total read bandwidth from this memory (bytes/s)
system.mem_ctrls.bw_write::ruby.dir_cntrl0     13862643                       # Write bandwidth from this memory (bytes/s)
system.mem_ctrls.bw_write::total             13862643                       # Write bandwidth from this memory (bytes/s)
system.mem_ctrls.bw_total::ruby.dir_cntrl0     39916604                       # Total bandwidth to/from this memory (bytes/s)
system.mem_ctrls.bw_total::total             39916604                       # Total bandwidth to/from this memory (bytes/s)
system.mem_ctrls.readReqs                     1999734                       # Number of read requests accepted
system.mem_ctrls.writeReqs                    1064007                       # Number of write requests accepted
system.mem_ctrls.readBursts                   1999734                       # Number of DRAM read bursts, including those serviced by the write queue
system.mem_ctrls.writeBursts                  1064007                       # Number of DRAM write bursts, including those merged in the write queue
system.mem_ctrls.bytesReadDRAM              127960320                       # Total number of bytes read from DRAM
system.mem_ctrls.bytesReadWrQ                   22656                       # Total number of bytes read from write queue
system.mem_ctrls.bytesWritten                66133312                       # Total number of bytes written to DRAM
system.mem_ctrls.bytesReadSys                63991488                       # Total read bytes from the system interface side
system.mem_ctrls.bytesWrittenSys             34048224                       # Total written bytes from the system interface side
system.mem_ctrls.servicedByWrQ                    354                       # Number of DRAM read bursts serviced by the write queue
system.mem_ctrls.mergedWrBursts                 30678                       # Number of DRAM write bursts merged with an existing one
system.mem_ctrls.neitherReadNorWriteReqs            0                       # Number of requests that are neither read nor write
system.mem_ctrls.perBankRdBursts::0            124879                       # Per bank write bursts
system.mem_ctrls.perBankRdBursts::1            126615                       # Per bank write bursts
system.mem_ctrls.perBankRdBursts::2            121375                       # Per bank write bursts
system.mem_ctrls.perBankRdBursts::3            119910                       # Per bank write bursts
system.mem_ctrls.perBankRdBursts::4            126204                       # Per bank write bursts
system.mem_ctrls.perBankRdBursts::5            131570                       # Per bank write bursts
system.mem_ctrls.perBankRdBursts::6            125222                       # Per bank write bursts
system.mem_ctrls.perBankRdBursts::7            127359                       # Per bank write bursts
system.mem_ctrls.perBankRdBursts::8            128892                       # Per bank write bursts
system.mem_ctrls.perBankRdBursts::9            122594                       # Per bank write bursts
system.mem_ctrls.perBankRdBursts::10           121961                       # Per bank write bursts
system.mem_ctrls.perBankRdBursts::11           126160                       # Per bank write bursts
system.mem_ctrls.perBankRdBursts::12           118661                       # Per bank write bursts
system.mem_ctrls.perBankRdBursts::13           122656                       # Per bank write bursts
system.mem_ctrls.perBankRdBursts::14           127218                       # Per bank write bursts
system.mem_ctrls.perBankRdBursts::15           128104                       # Per bank write bursts
system.mem_ctrls.perBankWrBursts::0             63940                       # Per bank write bursts
system.mem_ctrls.perBankWrBursts::1             66972                       # Per bank write bursts
system.mem_ctrls.perBankWrBursts::2             63556                       # Per bank write bursts
system.mem_ctrls.perBankWrBursts::3             63071                       # Per bank write bursts
system.mem_ctrls.perBankWrBursts::4             64688                       # Per bank write bursts
system.mem_ctrls.perBankWrBursts::5             65681                       # Per bank write bursts
system.mem_ctrls.perBankWrBursts::6             65052                       # Per bank write bursts
system.mem_ctrls.perBankWrBursts::7             66402                       # Per bank write bursts
system.mem_ctrls.perBankWrBursts::8             65893                       # Per bank write bursts
system.mem_ctrls.perBankWrBursts::9             64423                       # Per bank write bursts
system.mem_ctrls.perBankWrBursts::10            63782                       # Per bank write bursts
system.mem_ctrls.perBankWrBursts::11            63921                       # Per bank write bursts
system.mem_ctrls.perBankWrBursts::12            62912                       # Per bank write bursts
system.mem_ctrls.perBankWrBursts::13            63900                       # Per bank write bursts
system.mem_ctrls.perBankWrBursts::14            64416                       # Per bank write bursts
system.mem_ctrls.perBankWrBursts::15            64724                       # Per bank write bursts
system.mem_ctrls.numRdRetry                         0                       # Number of times read queue was full causing retry
system.mem_ctrls.numWrRetry                         0                       # Number of times write queue was full causing retry
system.mem_ctrls.totGap                  2456113538500                       # Total gap between requests
system.mem_ctrls.readPktSize::0                     0                       # Read request sizes (log2)
system.mem_ctrls.readPktSize::1                     0                       # Read request sizes (log2)
system.mem_ctrls.readPktSize::2                     0                       # Read request sizes (log2)
system.mem_ctrls.readPktSize::3                     0                       # Read request sizes (log2)
system.mem_ctrls.readPktSize::4                     0                       # Read request sizes (log2)
system.mem_ctrls.readPktSize::5               1999734                       # Read request sizes (log2)
system.mem_ctrls.readPktSize::6                     0                       # Read request sizes (log2)
system.mem_ctrls.writePktSize::0                    0                       # Write request sizes (log2)
system.mem_ctrls.writePktSize::1                    0                       # Write request sizes (log2)
system.mem_ctrls.writePktSize::2                    0                       # Write request sizes (log2)
system.mem_ctrls.writePktSize::3                    0                       # Write request sizes (log2)
system.mem_ctrls.writePktSize::4                    0                       # Write request sizes (log2)
system.mem_ctrls.writePktSize::5              1064007                       # Write request sizes (log2)
system.mem_ctrls.writePktSize::6                    0                       # Write request sizes (log2)
system.mem_ctrls.rdQLenPdf::0                 1992297                       # What read queue length does an incoming req see
system.mem_ctrls.rdQLenPdf::1                    7056                       # What read queue length does an incoming req see
system.mem_ctrls.rdQLenPdf::2                      27                       # What read queue length does an incoming req see
system.mem_ctrls.rdQLenPdf::3                       0                       # What read queue length does an incoming req see
system.mem_ctrls.rdQLenPdf::4                       0                       # What read queue length does an incoming req see
system.mem_ctrls.rdQLenPdf::5                       0                       # What read queue length does an incoming req see
system.mem_ctrls.rdQLenPdf::6                       0                       # What read queue length does an incoming req see
system.mem_ctrls.rdQLenPdf::7                       0                       # What read queue length does an incoming req see
system.mem_ctrls.rdQLenPdf::8                       0                       # What read queue length does an incoming req see
system.mem_ctrls.rdQLenPdf::9                       0                       # What read queue length does an incoming req see
system.mem_ctrls.rdQLenPdf::10                      0                       # What read queue length does an incoming req see
system.mem_ctrls.rdQLenPdf::11                      0                       # What read queue length does an incoming req see
system.mem_ctrls.rdQLenPdf::12                      0                       # What read queue length does an incoming req see
system.mem_ctrls.rdQLenPdf::13                      0                       # What read queue length does an incoming req see
system.mem_ctrls.rdQLenPdf::14                      0                       # What read queue length does an incoming req see
system.mem_ctrls.rdQLenPdf::15                      0                       # What read queue length does an incoming req see
system.mem_ctrls.rdQLenPdf::16                      0                       # What read queue length does an incoming req see
system.mem_ctrls.rdQLenPdf::17                      0                       # What read queue length does an incoming req see
system.mem_ctrls.rdQLenPdf::18                      0                       # What read queue length does an incoming req see
system.mem_ctrls.rdQLenPdf::19                      0                       # What read queue length does an incoming req see
system.mem_ctrls.rdQLenPdf::20                      0                       # What read queue length does an incoming req see
system.mem_ctrls.rdQLenPdf::21                      0                       # What read queue length does an incoming req see
system.mem_ctrls.rdQLenPdf::22                      0                       # What read queue length does an incoming req see
system.mem_ctrls.rdQLenPdf::23                      0                       # What read queue length does an incoming req see
system.mem_ctrls.rdQLenPdf::24                      0                       # What read queue length does an incoming req see
system.mem_ctrls.rdQLenPdf::25                      0                       # What read queue length does an incoming req see
system.mem_ctrls.rdQLenPdf::26                      0                       # What read queue length does an incoming req see
system.mem_ctrls.rdQLenPdf::27                      0                       # What read queue length does an incoming req see
system.mem_ctrls.rdQLenPdf::28                      0                       # What read queue length does an incoming req see
system.mem_ctrls.rdQLenPdf::29                      0                       # What read queue length does an incoming req see
system.mem_ctrls.rdQLenPdf::30                      0                       # What read queue length does an incoming req see
system.mem_ctrls.rdQLenPdf::31                      0                       # What read queue length does an incoming req see
system.mem_ctrls.wrQLenPdf::0                       0                       # What write queue length does an incoming req see
system.mem_ctrls.wrQLenPdf::1                       0                       # What write queue length does an incoming req see
system.mem_ctrls.wrQLenPdf::2                       0                       # What write queue length does an incoming req see
system.mem_ctrls.wrQLenPdf::3                       0                       # What write queue length does an incoming req see
system.mem_ctrls.wrQLenPdf::4                       0                       # What write queue length does an incoming req see
system.mem_ctrls.wrQLenPdf::5                       0                       # What write queue length does an incoming req see
system.mem_ctrls.wrQLenPdf::6                       0                       # What write queue length does an incoming req see
system.mem_ctrls.wrQLenPdf::7                       0                       # What write queue length does an incoming req see
system.mem_ctrls.wrQLenPdf::8                       0                       # What write queue length does an incoming req see
system.mem_ctrls.wrQLenPdf::9                       0                       # What write queue length does an incoming req see
system.mem_ctrls.wrQLenPdf::10                      0                       # What write queue length does an incoming req see
system.mem_ctrls.wrQLenPdf::11                      0                       # What write queue length does an incoming req see
system.mem_ctrls.wrQLenPdf::12                      0                       # What write queue length does an incoming req see
system.mem_ctrls.wrQLenPdf::13                      0                       # What write queue length does an incoming req see
system.mem_ctrls.wrQLenPdf::14                      0                       # What write queue length does an incoming req see
system.mem_ctrls.wrQLenPdf::15                    857                       # What write queue length does an incoming req see
system.mem_ctrls.wrQLenPdf::16                    997                       # What write queue length does an incoming req see
system.mem_ctrls.wrQLenPdf::17                  63731                       # What write queue length does an incoming req see
system.mem_ctrls.wrQLenPdf::18                  64505                       # What write queue length does an incoming req see
system.mem_ctrls.wrQLenPdf::19                  64531                       # What write queue length does an incoming req see
system.mem_ctrls.wrQLenPdf::20                  64522                       # What write queue length does an incoming req see
system.mem_ctrls.wrQLenPdf::21                  64526                       # What write queue length does an incoming req see
system.mem_ctrls.wrQLenPdf::22                  64530                       # What write queue length does an incoming req see
system.mem_ctrls.wrQLenPdf::23                  64538                       # What write queue length does an incoming req see
system.mem_ctrls.wrQLenPdf::24                  64532                       # What write queue length does an incoming req see
system.mem_ctrls.wrQLenPdf::25                  64561                       # What write queue length does an incoming req see
system.mem_ctrls.wrQLenPdf::26                  64537                       # What write queue length does an incoming req see
system.mem_ctrls.wrQLenPdf::27                  64524                       # What write queue length does an incoming req see
system.mem_ctrls.wrQLenPdf::28                  64510                       # What write queue length does an incoming req see
system.mem_ctrls.wrQLenPdf::29                  64503                       # What write queue length does an incoming req see
system.mem_ctrls.wrQLenPdf::30                  64479                       # What write queue length does an incoming req see
system.mem_ctrls.wrQLenPdf::31                  64471                       # What write queue length does an incoming req see
system.mem_ctrls.wrQLenPdf::32                  64470                       # What write queue length does an incoming req see
system.mem_ctrls.wrQLenPdf::33                      5                       # What write queue length does an incoming req see
system.mem_ctrls.wrQLenPdf::34                      0                       # What write queue length does an incoming req see
system.mem_ctrls.wrQLenPdf::35                      0                       # What write queue length does an incoming req see
system.mem_ctrls.wrQLenPdf::36                      0                       # What write queue length does an incoming req see
system.mem_ctrls.wrQLenPdf::37                      0                       # What write queue length does an incoming req see
system.mem_ctrls.wrQLenPdf::38                      0                       # What write queue length does an incoming req see
system.mem_ctrls.wrQLenPdf::39                      0                       # What write queue length does an incoming req see
system.mem_ctrls.wrQLenPdf::40                      0                       # What write queue length does an incoming req see
system.mem_ctrls.wrQLenPdf::41                      0                       # What write queue length does an incoming req see
system.mem_ctrls.wrQLenPdf::42                      0                       # What write queue length does an incoming req see
system.mem_ctrls.wrQLenPdf::43                      0                       # What write queue length does an incoming req see
system.mem_ctrls.wrQLenPdf::44                      0                       # What write queue length does an incoming req see
system.mem_ctrls.wrQLenPdf::45                      0                       # What write queue length does an incoming req see
system.mem_ctrls.wrQLenPdf::46                      0                       # What write queue length does an incoming req see
system.mem_ctrls.wrQLenPdf::47                      0                       # What write queue length does an incoming req see
system.mem_ctrls.wrQLenPdf::48                      0                       # What write queue length does an incoming req see
system.mem_ctrls.wrQLenPdf::49                      0                       # What write queue length does an incoming req see
system.mem_ctrls.wrQLenPdf::50                      0                       # What write queue length does an incoming req see
system.mem_ctrls.wrQLenPdf::51                      0                       # What write queue length does an incoming req see
system.mem_ctrls.wrQLenPdf::52                      0                       # What write queue length does an incoming req see
system.mem_ctrls.wrQLenPdf::53                      0                       # What write queue length does an incoming req see
system.mem_ctrls.wrQLenPdf::54                      0                       # What write queue length does an incoming req see
system.mem_ctrls.wrQLenPdf::55                      0                       # What write queue length does an incoming req see
system.mem_ctrls.wrQLenPdf::56                      0                       # What write queue length does an incoming req see
system.mem_ctrls.wrQLenPdf::57                      0                       # What write queue length does an incoming req see
system.mem_ctrls.wrQLenPdf::58                      0                       # What write queue length does an incoming req see
system.mem_ctrls.wrQLenPdf::59                      0                       # What write queue length does an incoming req see
system.mem_ctrls.wrQLenPdf::60                      0                       # What write queue length does an incoming req see
system.mem_ctrls.wrQLenPdf::61                      0                       # What write queue length does an incoming req see
system.mem_ctrls.wrQLenPdf::62                      0                       # What write queue length does an incoming req see
system.mem_ctrls.wrQLenPdf::63                      0                       # What write queue length does an incoming req see
system.mem_ctrls.bytesPerActivate::samples      1076077                       # Bytes accessed per row activation
system.mem_ctrls.bytesPerActivate::mean    180.371628                       # Bytes accessed per row activation
system.mem_ctrls.bytesPerActivate::gmean   123.360353                       # Bytes accessed per row activation
system.mem_ctrls.bytesPerActivate::stdev   208.157150                       # Bytes accessed per row activation
system.mem_ctrls.bytesPerActivate::0-127       520797     48.40%     48.40% # Bytes accessed per row activation
system.mem_ctrls.bytesPerActivate::128-255       327027     30.39%     78.79% # Bytes accessed per row activation
system.mem_ctrls.bytesPerActivate::256-383       120803     11.23%     90.01% # Bytes accessed per row activation
system.mem_ctrls.bytesPerActivate::384-511        24765      2.30%     92.32% # Bytes accessed per row activation
system.mem_ctrls.bytesPerActivate::512-639        18400      1.71%     94.03% # Bytes accessed per row activation
system.mem_ctrls.bytesPerActivate::640-767        13381      1.24%     95.27% # Bytes accessed per row activation
system.mem_ctrls.bytesPerActivate::768-895        12514      1.16%     96.43% # Bytes accessed per row activation
system.mem_ctrls.bytesPerActivate::896-1023         8895      0.83%     97.26% # Bytes accessed per row activation
system.mem_ctrls.bytesPerActivate::1024-1151        29495      2.74%    100.00% # Bytes accessed per row activation
system.mem_ctrls.bytesPerActivate::total      1076077                       # Bytes accessed per row activation
system.mem_ctrls.rdPerTurnAround::samples        64463                       # Reads before turning the bus around for writes
system.mem_ctrls.rdPerTurnAround::mean      31.016071                       # Reads before turning the bus around for writes
system.mem_ctrls.rdPerTurnAround::stdev     52.721015                       # Reads before turning the bus around for writes
system.mem_ctrls.rdPerTurnAround::0-255         64326     99.79%     99.79% # Reads before turning the bus around for writes
system.mem_ctrls.rdPerTurnAround::256-511          117      0.18%     99.97% # Reads before turning the bus around for writes
system.mem_ctrls.rdPerTurnAround::512-767            5      0.01%     99.98% # Reads before turning the bus around for writes
system.mem_ctrls.rdPerTurnAround::768-1023            2      0.00%     99.98% # Reads before turning the bus around for writes
system.mem_ctrls.rdPerTurnAround::1536-1791            2      0.00%     99.98% # Reads before turning the bus around for writes
system.mem_ctrls.rdPerTurnAround::2560-2815            2      0.00%     99.99% # Reads before turning the bus around for writes
system.mem_ctrls.rdPerTurnAround::2816-3071            1      0.00%     99.99% # Reads before turning the bus around for writes
system.mem_ctrls.rdPerTurnAround::3072-3327            2      0.00%     99.99% # Reads before turning the bus around for writes
system.mem_ctrls.rdPerTurnAround::3328-3583            2      0.00%     99.99% # Reads before turning the bus around for writes
system.mem_ctrls.rdPerTurnAround::3840-4095            2      0.00%    100.00% # Reads before turning the bus around for writes
system.mem_ctrls.rdPerTurnAround::4096-4351            1      0.00%    100.00% # Reads before turning the bus around for writes
system.mem_ctrls.rdPerTurnAround::4352-4607            1      0.00%    100.00% # Reads before turning the bus around for writes
system.mem_ctrls.rdPerTurnAround::total         64463                       # Reads before turning the bus around for writes
system.mem_ctrls.wrPerTurnAround::samples        64463                       # Writes before turning the bus around for reads
system.mem_ctrls.wrPerTurnAround::mean      16.029862                       # Writes before turning the bus around for reads
system.mem_ctrls.wrPerTurnAround::gmean     16.028133                       # Writes before turning the bus around for reads
system.mem_ctrls.wrPerTurnAround::stdev      0.245575                       # Writes before turning the bus around for reads
system.mem_ctrls.wrPerTurnAround::16            63481     98.48%     98.48% # Writes before turning the bus around for reads
system.mem_ctrls.wrPerTurnAround::17               70      0.11%     98.59% # Writes before turning the bus around for reads
system.mem_ctrls.wrPerTurnAround::18              896      1.39%     99.98% # Writes before turning the bus around for reads
system.mem_ctrls.wrPerTurnAround::19               10      0.02%     99.99% # Writes before turning the bus around for reads
system.mem_ctrls.wrPerTurnAround::20                3      0.00%    100.00% # Writes before turning the bus around for reads
system.mem_ctrls.wrPerTurnAround::21                1      0.00%    100.00% # Writes before turning the bus around for reads
system.mem_ctrls.wrPerTurnAround::24                2      0.00%    100.00% # Writes before turning the bus around for reads
system.mem_ctrls.wrPerTurnAround::total         64463                       # Writes before turning the bus around for reads
system.mem_ctrls.totQLat                  26952940166                       # Total ticks spent queuing
system.mem_ctrls.totMemAccLat             64441315166                       # Total ticks spent from burst creation until serviced by the DRAM
system.mem_ctrls.totBusLat                 9996900000                       # Total ticks spent in databus transfers
system.mem_ctrls.avgQLat                     13480.65                       # Average queueing delay per DRAM burst
system.mem_ctrls.avgBusLat                    5000.00                       # Average bus latency per DRAM burst
system.mem_ctrls.avgMemAccLat                32230.65                       # Average memory access latency per DRAM burst
system.mem_ctrls.avgRdBW                        52.10                       # Average DRAM read bandwidth in MiByte/s
system.mem_ctrls.avgWrBW                        26.93                       # Average achieved write bandwidth in MiByte/s
system.mem_ctrls.avgRdBWSys                     26.05                       # Average system read bandwidth in MiByte/s
system.mem_ctrls.avgWrBWSys                     13.86                       # Average system write bandwidth in MiByte/s
system.mem_ctrls.peakBW                      12800.00                       # Theoretical peak bandwidth in MiByte/s
system.mem_ctrls.busUtil                         0.62                       # Data bus utilization in percentage
system.mem_ctrls.busUtilRead                     0.41                       # Data bus utilization in percentage for reads
system.mem_ctrls.busUtilWrite                    0.21                       # Data bus utilization in percentage for writes
system.mem_ctrls.avgRdQLen                       1.00                       # Average read queue length when enqueuing
system.mem_ctrls.avgWrQLen                      25.50                       # Average write queue length when enqueuing
system.mem_ctrls.readRowHits                  1511935                       # Number of row buffer hits during reads
system.mem_ctrls.writeRowHits                  444699                       # Number of row buffer hits during writes
system.mem_ctrls.readRowHitRate                 75.62                       # Row buffer hit rate for reads
system.mem_ctrls.writeRowHitRate                43.04                       # Row buffer hit rate for writes
system.mem_ctrls.avgGap                     801671.40                       # Average gap between requests
system.mem_ctrls.pageHitRate                    64.52                       # Row buffer hit rate, read and write combined
system.mem_ctrls_0.actEnergy               4139682120                       # Energy for activate commands per rank (pJ)
system.mem_ctrls_0.preEnergy               2258755125                       # Energy for precharge commands per rank (pJ)
system.mem_ctrls_0.readEnergy              8126414400                       # Energy for read commands per rank (pJ)
system.mem_ctrls_0.writeEnergy             3392137440                       # Energy for write commands per rank (pJ)
system.mem_ctrls_0.refreshEnergy         161359476720                       # Energy for refresh commands per rank (pJ)
system.mem_ctrls_0.actBackEnergy         437128909965                       # Energy for active background per rank (pJ)
system.mem_ctrls_0.preBackEnergy         1098839286000                       # Energy for precharge background per rank (pJ)
system.mem_ctrls_0.totalEnergy           1715244661770                       # Total energy per rank (pJ)
system.mem_ctrls_0.averagePower            694.297191                       # Core power per rank (mW)
system.mem_ctrls_0.memoryStateTime::IDLE 1819664446251                       # Time in different power states
system.mem_ctrls_0.memoryStateTime::REF   82014920000                       # Time in different power states
system.mem_ctrls_0.memoryStateTime::PRE_PDN            0                       # Time in different power states
system.mem_ctrls_0.memoryStateTime::ACT  554434166249                       # Time in different power states
system.mem_ctrls_0.memoryStateTime::ACT_PDN            0                       # Time in different power states
system.mem_ctrls_1.actEnergy               4096718640                       # Energy for activate commands per rank (pJ)
system.mem_ctrls_1.preEnergy               2235312750                       # Energy for precharge commands per rank (pJ)
system.mem_ctrls_1.readEnergy              8049381600                       # Energy for read commands per rank (pJ)
system.mem_ctrls_1.writeEnergy             3348326160                       # Energy for write commands per rank (pJ)
system.mem_ctrls_1.refreshEnergy         161359476720                       # Energy for refresh commands per rank (pJ)
system.mem_ctrls_1.actBackEnergy         435021119505                       # Energy for active background per rank (pJ)
system.mem_ctrls_1.preBackEnergy         1100688225000                       # Energy for precharge background per rank (pJ)
system.mem_ctrls_1.totalEnergy           1714798560375                       # Total energy per rank (pJ)
system.mem_ctrls_1.averagePower            694.116618                       # Core power per rank (mW)
system.mem_ctrls_1.memoryStateTime::IDLE 1821570756750                       # Time in different power states
system.mem_ctrls_1.memoryStateTime::REF   82014920000                       # Time in different power states
system.mem_ctrls_1.memoryStateTime::PRE_PDN            0                       # Time in different power states
system.mem_ctrls_1.memoryStateTime::ACT  552526471250                       # Time in different power states
system.mem_ctrls_1.memoryStateTime::ACT_PDN            0                       # Time in different power states
system.cpu_voltage_domain.voltage                   1                       # Voltage in Volts
system.cpu_clk_domain.clock                       500                       # Clock period in ticks
system.cpu0.apic_clk_domain.clock                8000                       # Clock period in ticks
system.cpu0.numCycles                      4914772353                       # number of cpu cycles simulated
system.cpu0.numWorkItemsStarted                     0                       # number of work items this cpu started
system.cpu0.numWorkItemsCompleted                   0                       # number of work items this cpu completed
system.cpu0.kern.inst.arm                           0                       # number of arm instructions executed
system.cpu0.kern.inst.quiesce                       0                       # number of quiesce instructions executed
system.cpu0.committedInsts                    4032402                       # Number of instructions committed
system.cpu0.committedOps                      8342304                       # Number of ops (including micro ops) committed
system.cpu0.num_int_alu_accesses              8115238                       # Number of integer alu accesses
system.cpu0.num_fp_alu_accesses                   372                       # Number of float alu accesses
system.cpu0.num_func_calls                     195786                       # number of times a function call or return occured
system.cpu0.num_conditional_control_insts       644651                       # number of instructions that are conditional controls
system.cpu0.num_int_insts                     8115238                       # number of integer instructions
system.cpu0.num_fp_insts                          372                       # number of float instructions
system.cpu0.num_int_register_reads           15855179                       # number of times the integer registers were read
system.cpu0.num_int_register_writes           6685027                       # number of times the integer registers were written
system.cpu0.num_fp_register_reads                 596                       # number of times the floating registers were read
system.cpu0.num_fp_register_writes                261                       # number of times the floating registers were written
system.cpu0.num_cc_register_reads             5001998                       # number of times the CC registers were read
system.cpu0.num_cc_register_writes            3063228                       # number of times the CC registers were written
system.cpu0.num_mem_refs                      1713189                       # number of memory refs
system.cpu0.num_load_insts                    1059537                       # Number of load instructions
system.cpu0.num_store_insts                    653652                       # Number of store instructions
system.cpu0.num_idle_cycles              4888602936.352225                       # Number of idle cycles
system.cpu0.num_busy_cycles              26169416.647774                       # Number of busy cycles
system.cpu0.not_idle_fraction                0.005325                       # Percentage of non-idle cycles
system.cpu0.idle_fraction                    0.994675                       # Percentage of idle cycles
system.cpu0.Branches                           907024                       # Number of branches fetched
system.cpu0.op_class::No_OpClass                84740      1.02%      1.02% # Class of executed instruction
system.cpu0.op_class::IntAlu                  6507469     78.00%     79.02% # Class of executed instruction
system.cpu0.op_class::IntMult                    9702      0.12%     79.14% # Class of executed instruction
system.cpu0.op_class::IntDiv                    27047      0.32%     79.46% # Class of executed instruction
system.cpu0.op_class::FloatAdd                    244      0.00%     79.46% # Class of executed instruction
system.cpu0.op_class::FloatCmp                      0      0.00%     79.46% # Class of executed instruction
system.cpu0.op_class::FloatCvt                      0      0.00%     79.46% # Class of executed instruction
system.cpu0.op_class::FloatMult                     0      0.00%     79.46% # Class of executed instruction
system.cpu0.op_class::FloatDiv                      0      0.00%     79.46% # Class of executed instruction
system.cpu0.op_class::FloatSqrt                     0      0.00%     79.46% # Class of executed instruction
system.cpu0.op_class::SimdAdd                       0      0.00%     79.46% # Class of executed instruction
system.cpu0.op_class::SimdAddAcc                    0      0.00%     79.46% # Class of executed instruction
system.cpu0.op_class::SimdAlu                       0      0.00%     79.46% # Class of executed instruction
system.cpu0.op_class::SimdCmp                       0      0.00%     79.46% # Class of executed instruction
system.cpu0.op_class::SimdCvt                       0      0.00%     79.46% # Class of executed instruction
system.cpu0.op_class::SimdMisc                      0      0.00%     79.46% # Class of executed instruction
system.cpu0.op_class::SimdMult                      0      0.00%     79.46% # Class of executed instruction
system.cpu0.op_class::SimdMultAcc                   0      0.00%     79.46% # Class of executed instruction
system.cpu0.op_class::SimdShift                     0      0.00%     79.46% # Class of executed instruction
system.cpu0.op_class::SimdShiftAcc                  0      0.00%     79.46% # Class of executed instruction
system.cpu0.op_class::SimdSqrt                      0      0.00%     79.46% # Class of executed instruction
system.cpu0.op_class::SimdFloatAdd                  0      0.00%     79.46% # Class of executed instruction
system.cpu0.op_class::SimdFloatAlu                  0      0.00%     79.46% # Class of executed instruction
system.cpu0.op_class::SimdFloatCmp                  0      0.00%     79.46% # Class of executed instruction
system.cpu0.op_class::SimdFloatCvt                  0      0.00%     79.46% # Class of executed instruction
system.cpu0.op_class::SimdFloatDiv                  0      0.00%     79.46% # Class of executed instruction
system.cpu0.op_class::SimdFloatMisc                 0      0.00%     79.46% # Class of executed instruction
system.cpu0.op_class::SimdFloatMult                 0      0.00%     79.46% # Class of executed instruction
system.cpu0.op_class::SimdFloatMultAcc              0      0.00%     79.46% # Class of executed instruction
system.cpu0.op_class::SimdFloatSqrt                 0      0.00%     79.46% # Class of executed instruction
system.cpu0.op_class::MemRead                 1059537     12.70%     92.16% # Class of executed instruction
system.cpu0.op_class::MemWrite                 653652      7.84%    100.00% # Class of executed instruction
system.cpu0.op_class::IprAccess                     0      0.00%    100.00% # Class of executed instruction
system.cpu0.op_class::InstPrefetch                  0      0.00%    100.00% # Class of executed instruction
system.cpu0.op_class::total                   8342391                       # Class of executed instruction
system.cpu1.apic_clk_domain.clock                8000                       # Clock period in ticks
system.cpu1.numCycles                      4906319328                       # number of cpu cycles simulated
system.cpu1.numWorkItemsStarted                     0                       # number of work items this cpu started
system.cpu1.numWorkItemsCompleted                   0                       # number of work items this cpu completed
system.cpu1.kern.inst.arm                           0                       # number of arm instructions executed
system.cpu1.kern.inst.quiesce                       0                       # number of quiesce instructions executed
system.cpu1.committedInsts                 1297768608                       # Number of instructions committed
system.cpu1.committedOps                   2349257725                       # Number of ops (including micro ops) committed
system.cpu1.num_int_alu_accesses           1507276312                       # Number of integer alu accesses
system.cpu1.num_fp_alu_accesses            1130300518                       # Number of float alu accesses
system.cpu1.num_func_calls                     805553                       # number of times a function call or return occured
system.cpu1.num_conditional_control_insts    160942072                       # number of instructions that are conditional controls
system.cpu1.num_int_insts                  1507276312                       # number of integer instructions
system.cpu1.num_fp_insts                   1130300518                       # number of float instructions
system.cpu1.num_int_register_reads         2941195246                       # number of times the integer registers were read
system.cpu1.num_int_register_writes        1034245193                       # number of times the integer registers were written
system.cpu1.num_fp_register_reads          1382500686                       # number of times the floating registers were read
system.cpu1.num_fp_register_writes         1075410587                       # number of times the floating registers were written
system.cpu1.num_cc_register_reads           939423242                       # number of times the CC registers were read
system.cpu1.num_cc_register_writes          528263601                       # number of times the CC registers were written
system.cpu1.num_mem_refs                    388430605                       # number of memory refs
system.cpu1.num_load_insts                  350019163                       # Number of load instructions
system.cpu1.num_store_insts                  38411442                       # Number of store instructions
system.cpu1.num_idle_cycles              29417196.426620                       # Number of idle cycles
system.cpu1.num_busy_cycles              4876902131.573380                       # Number of busy cycles
system.cpu1.not_idle_fraction                0.994004                       # Percentage of non-idle cycles
system.cpu1.idle_fraction                    0.005996                       # Percentage of idle cycles
system.cpu1.Branches                        166340658                       # Number of branches fetched
system.cpu1.op_class::No_OpClass              3904621      0.17%      0.17% # Class of executed instruction
system.cpu1.op_class::IntAlu               1229224289     52.32%     52.49% # Class of executed instruction
system.cpu1.op_class::IntMult                 4269159      0.18%     52.67% # Class of executed instruction
system.cpu1.op_class::IntDiv                      945      0.00%     52.67% # Class of executed instruction
system.cpu1.op_class::FloatAdd              723444434     30.79%     83.47% # Class of executed instruction
system.cpu1.op_class::FloatCmp                      0      0.00%     83.47% # Class of executed instruction
system.cpu1.op_class::FloatCvt                      0      0.00%     83.47% # Class of executed instruction
system.cpu1.op_class::FloatMult                     0      0.00%     83.47% # Class of executed instruction
system.cpu1.op_class::FloatDiv                      0      0.00%     83.47% # Class of executed instruction
system.cpu1.op_class::FloatSqrt                     0      0.00%     83.47% # Class of executed instruction
system.cpu1.op_class::SimdAdd                       0      0.00%     83.47% # Class of executed instruction
system.cpu1.op_class::SimdAddAcc                    0      0.00%     83.47% # Class of executed instruction
system.cpu1.op_class::SimdAlu                       0      0.00%     83.47% # Class of executed instruction
system.cpu1.op_class::SimdCmp                       0      0.00%     83.47% # Class of executed instruction
system.cpu1.op_class::SimdCvt                       0      0.00%     83.47% # Class of executed instruction
system.cpu1.op_class::SimdMisc                      0      0.00%     83.47% # Class of executed instruction
system.cpu1.op_class::SimdMult                      0      0.00%     83.47% # Class of executed instruction
system.cpu1.op_class::SimdMultAcc                   0      0.00%     83.47% # Class of executed instruction
system.cpu1.op_class::SimdShift                     0      0.00%     83.47% # Class of executed instruction
system.cpu1.op_class::SimdShiftAcc                  0      0.00%     83.47% # Class of executed instruction
system.cpu1.op_class::SimdSqrt                      0      0.00%     83.47% # Class of executed instruction
system.cpu1.op_class::SimdFloatAdd                  0      0.00%     83.47% # Class of executed instruction
system.cpu1.op_class::SimdFloatAlu                  0      0.00%     83.47% # Class of executed instruction
system.cpu1.op_class::SimdFloatCmp                  0      0.00%     83.47% # Class of executed instruction
system.cpu1.op_class::SimdFloatCvt                  0      0.00%     83.47% # Class of executed instruction
system.cpu1.op_class::SimdFloatDiv                  0      0.00%     83.47% # Class of executed instruction
system.cpu1.op_class::SimdFloatMisc                 0      0.00%     83.47% # Class of executed instruction
system.cpu1.op_class::SimdFloatMult                 0      0.00%     83.47% # Class of executed instruction
system.cpu1.op_class::SimdFloatMultAcc              0      0.00%     83.47% # Class of executed instruction
system.cpu1.op_class::SimdFloatSqrt                 0      0.00%     83.47% # Class of executed instruction
system.cpu1.op_class::MemRead               350019163     14.90%     98.36% # Class of executed instruction
system.cpu1.op_class::MemWrite               38411442      1.64%    100.00% # Class of executed instruction
system.cpu1.op_class::IprAccess                     0      0.00%    100.00% # Class of executed instruction
system.cpu1.op_class::InstPrefetch                  0      0.00%    100.00% # Class of executed instruction
system.cpu1.op_class::total                2349274053                       # Class of executed instruction
system.cpu2.apic_clk_domain.clock                8000                       # Clock period in ticks
system.cpu2.numCycles                      4909638947                       # number of cpu cycles simulated
system.cpu2.numWorkItemsStarted                     0                       # number of work items this cpu started
system.cpu2.numWorkItemsCompleted                   0                       # number of work items this cpu completed
system.cpu2.kern.inst.arm                           0                       # number of arm instructions executed
system.cpu2.kern.inst.quiesce                       0                       # number of quiesce instructions executed
system.cpu2.committedInsts                    4819527                       # Number of instructions committed
system.cpu2.committedOps                      9699665                       # Number of ops (including micro ops) committed
system.cpu2.num_int_alu_accesses              9525238                       # Number of integer alu accesses
system.cpu2.num_fp_alu_accesses                  1778                       # Number of float alu accesses
system.cpu2.num_func_calls                     250382                       # number of times a function call or return occured
system.cpu2.num_conditional_control_insts       834225                       # number of instructions that are conditional controls
system.cpu2.num_int_insts                     9525238                       # number of integer instructions
system.cpu2.num_fp_insts                         1778                       # number of float instructions
system.cpu2.num_int_register_reads           18847746                       # number of times the integer registers were read
system.cpu2.num_int_register_writes           7755227                       # number of times the integer registers were written
system.cpu2.num_fp_register_reads                2988                       # number of times the floating registers were read
system.cpu2.num_fp_register_writes               1416                       # number of times the floating registers were written
system.cpu2.num_cc_register_reads             6224129                       # number of times the CC registers were read
system.cpu2.num_cc_register_writes            3301976                       # number of times the CC registers were written
system.cpu2.num_mem_refs                      2158989                       # number of memory refs
system.cpu2.num_load_insts                    1397647                       # Number of load instructions
system.cpu2.num_store_insts                    761342                       # Number of store instructions
system.cpu2.num_idle_cycles              4884025182.416243                       # Number of idle cycles
system.cpu2.num_busy_cycles              25613764.583757                       # Number of busy cycles
system.cpu2.not_idle_fraction                0.005217                       # Percentage of non-idle cycles
system.cpu2.idle_fraction                    0.994783                       # Percentage of idle cycles
system.cpu2.Branches                          1131901                       # Number of branches fetched
system.cpu2.op_class::No_OpClass                76970      0.79%      0.79% # Class of executed instruction
system.cpu2.op_class::IntAlu                  7427145     76.57%     77.36% # Class of executed instruction
system.cpu2.op_class::IntMult                    9157      0.09%     77.46% # Class of executed instruction
system.cpu2.op_class::IntDiv                    26150      0.27%     77.73% # Class of executed instruction
system.cpu2.op_class::FloatAdd                   1344      0.01%     77.74% # Class of executed instruction
system.cpu2.op_class::FloatCmp                      0      0.00%     77.74% # Class of executed instruction
system.cpu2.op_class::FloatCvt                      0      0.00%     77.74% # Class of executed instruction
system.cpu2.op_class::FloatMult                     0      0.00%     77.74% # Class of executed instruction
system.cpu2.op_class::FloatDiv                      0      0.00%     77.74% # Class of executed instruction
system.cpu2.op_class::FloatSqrt                     0      0.00%     77.74% # Class of executed instruction
system.cpu2.op_class::SimdAdd                       0      0.00%     77.74% # Class of executed instruction
system.cpu2.op_class::SimdAddAcc                    0      0.00%     77.74% # Class of executed instruction
system.cpu2.op_class::SimdAlu                       0      0.00%     77.74% # Class of executed instruction
system.cpu2.op_class::SimdCmp                       0      0.00%     77.74% # Class of executed instruction
system.cpu2.op_class::SimdCvt                       0      0.00%     77.74% # Class of executed instruction
system.cpu2.op_class::SimdMisc                      0      0.00%     77.74% # Class of executed instruction
system.cpu2.op_class::SimdMult                      0      0.00%     77.74% # Class of executed instruction
system.cpu2.op_class::SimdMultAcc                   0      0.00%     77.74% # Class of executed instruction
system.cpu2.op_class::SimdShift                     0      0.00%     77.74% # Class of executed instruction
system.cpu2.op_class::SimdShiftAcc                  0      0.00%     77.74% # Class of executed instruction
system.cpu2.op_class::SimdSqrt                      0      0.00%     77.74% # Class of executed instruction
system.cpu2.op_class::SimdFloatAdd                  0      0.00%     77.74% # Class of executed instruction
system.cpu2.op_class::SimdFloatAlu                  0      0.00%     77.74% # Class of executed instruction
system.cpu2.op_class::SimdFloatCmp                  0      0.00%     77.74% # Class of executed instruction
system.cpu2.op_class::SimdFloatCvt                  0      0.00%     77.74% # Class of executed instruction
system.cpu2.op_class::SimdFloatDiv                  0      0.00%     77.74% # Class of executed instruction
system.cpu2.op_class::SimdFloatMisc                 0      0.00%     77.74% # Class of executed instruction
system.cpu2.op_class::SimdFloatMult                 0      0.00%     77.74% # Class of executed instruction
system.cpu2.op_class::SimdFloatMultAcc              0      0.00%     77.74% # Class of executed instruction
system.cpu2.op_class::SimdFloatSqrt                 0      0.00%     77.74% # Class of executed instruction
system.cpu2.op_class::MemRead                 1397647     14.41%     92.15% # Class of executed instruction
system.cpu2.op_class::MemWrite                 761342      7.85%    100.00% # Class of executed instruction
system.cpu2.op_class::IprAccess                     0      0.00%    100.00% # Class of executed instruction
system.cpu2.op_class::InstPrefetch                  0      0.00%    100.00% # Class of executed instruction
system.cpu2.op_class::total                   9699755                       # Class of executed instruction
system.cpu3.apic_clk_domain.clock                8000                       # Clock period in ticks
system.cpu3.numCycles                      4919061765                       # number of cpu cycles simulated
system.cpu3.numWorkItemsStarted                     0                       # number of work items this cpu started
system.cpu3.numWorkItemsCompleted                   0                       # number of work items this cpu completed
system.cpu3.kern.inst.arm                           0                       # number of arm instructions executed
system.cpu3.kern.inst.quiesce                       0                       # number of quiesce instructions executed
system.cpu3.committedInsts                    2043397                       # Number of instructions committed
system.cpu3.committedOps                      4354177                       # Number of ops (including micro ops) committed
system.cpu3.num_int_alu_accesses              4263009                       # Number of integer alu accesses
system.cpu3.num_fp_alu_accesses                    39                       # Number of float alu accesses
system.cpu3.num_func_calls                     114754                       # number of times a function call or return occured
system.cpu3.num_conditional_control_insts       336797                       # number of instructions that are conditional controls
system.cpu3.num_int_insts                     4263009                       # number of integer instructions
system.cpu3.num_fp_insts                           39                       # number of float instructions
system.cpu3.num_int_register_reads            8542154                       # number of times the integer registers were read
system.cpu3.num_int_register_writes           3522841                       # number of times the integer registers were written
system.cpu3.num_fp_register_reads                  63                       # number of times the floating registers were read
system.cpu3.num_fp_register_writes                 31                       # number of times the floating registers were written
system.cpu3.num_cc_register_reads             2602276                       # number of times the CC registers were read
system.cpu3.num_cc_register_writes            1334617                       # number of times the CC registers were written
system.cpu3.num_mem_refs                       993357                       # number of memory refs
system.cpu3.num_load_insts                     618023                       # Number of load instructions
system.cpu3.num_store_insts                    375334                       # Number of store instructions
system.cpu3.num_idle_cycles              4907427362.855892                       # Number of idle cycles
system.cpu3.num_busy_cycles              11634402.144108                       # Number of busy cycles
system.cpu3.not_idle_fraction                0.002365                       # Percentage of non-idle cycles
system.cpu3.idle_fraction                    0.997635                       # Percentage of idle cycles
system.cpu3.Branches                           488570                       # Number of branches fetched
system.cpu3.op_class::No_OpClass                75451      1.73%      1.73% # Class of executed instruction
system.cpu3.op_class::IntAlu                  3249948     74.64%     76.37% # Class of executed instruction
system.cpu3.op_class::IntMult                    8219      0.19%     76.56% # Class of executed instruction
system.cpu3.op_class::IntDiv                    27194      0.62%     77.19% # Class of executed instruction
system.cpu3.op_class::FloatAdd                     30      0.00%     77.19% # Class of executed instruction
system.cpu3.op_class::FloatCmp                      0      0.00%     77.19% # Class of executed instruction
system.cpu3.op_class::FloatCvt                      0      0.00%     77.19% # Class of executed instruction
system.cpu3.op_class::FloatMult                     0      0.00%     77.19% # Class of executed instruction
system.cpu3.op_class::FloatDiv                      0      0.00%     77.19% # Class of executed instruction
system.cpu3.op_class::FloatSqrt                     0      0.00%     77.19% # Class of executed instruction
system.cpu3.op_class::SimdAdd                       0      0.00%     77.19% # Class of executed instruction
system.cpu3.op_class::SimdAddAcc                    0      0.00%     77.19% # Class of executed instruction
system.cpu3.op_class::SimdAlu                       0      0.00%     77.19% # Class of executed instruction
system.cpu3.op_class::SimdCmp                       0      0.00%     77.19% # Class of executed instruction
system.cpu3.op_class::SimdCvt                       0      0.00%     77.19% # Class of executed instruction
system.cpu3.op_class::SimdMisc                      0      0.00%     77.19% # Class of executed instruction
system.cpu3.op_class::SimdMult                      0      0.00%     77.19% # Class of executed instruction
system.cpu3.op_class::SimdMultAcc                   0      0.00%     77.19% # Class of executed instruction
system.cpu3.op_class::SimdShift                     0      0.00%     77.19% # Class of executed instruction
system.cpu3.op_class::SimdShiftAcc                  0      0.00%     77.19% # Class of executed instruction
system.cpu3.op_class::SimdSqrt                      0      0.00%     77.19% # Class of executed instruction
system.cpu3.op_class::SimdFloatAdd                  0      0.00%     77.19% # Class of executed instruction
system.cpu3.op_class::SimdFloatAlu                  0      0.00%     77.19% # Class of executed instruction
system.cpu3.op_class::SimdFloatCmp                  0      0.00%     77.19% # Class of executed instruction
system.cpu3.op_class::SimdFloatCvt                  0      0.00%     77.19% # Class of executed instruction
system.cpu3.op_class::SimdFloatDiv                  0      0.00%     77.19% # Class of executed instruction
system.cpu3.op_class::SimdFloatMisc                 0      0.00%     77.19% # Class of executed instruction
system.cpu3.op_class::SimdFloatMult                 0      0.00%     77.19% # Class of executed instruction
system.cpu3.op_class::SimdFloatMultAcc              0      0.00%     77.19% # Class of executed instruction
system.cpu3.op_class::SimdFloatSqrt                 0      0.00%     77.19% # Class of executed instruction
system.cpu3.op_class::MemRead                  618023     14.19%     91.38% # Class of executed instruction
system.cpu3.op_class::MemWrite                 375334      8.62%    100.00% # Class of executed instruction
system.cpu3.op_class::IprAccess                     0      0.00%    100.00% # Class of executed instruction
system.cpu3.op_class::InstPrefetch                  0      0.00%    100.00% # Class of executed instruction
system.cpu3.op_class::total                   4354199                       # Class of executed instruction
system.iobus.trans_dist::ReadReq                  411                       # Transaction distribution
system.iobus.trans_dist::ReadResp                 411                       # Transaction distribution
system.iobus.trans_dist::WriteReq                3181                       # Transaction distribution
system.iobus.trans_dist::WriteResp               3181                       # Transaction distribution
system.iobus.trans_dist::MessageReq                56                       # Transaction distribution
system.iobus.trans_dist::MessageResp               56                       # Transaction distribution
system.iobus.pkt_count_system.pc.south_bridge.io_apic.int_master::system.ruby.l0_cntrl0.sequencer.pio-slave-port           22                       # Packet count per connected master and slave (bytes)
system.iobus.pkt_count_system.pc.south_bridge.io_apic.int_master::system.ruby.l0_cntrl1.sequencer.pio-slave-port           22                       # Packet count per connected master and slave (bytes)
system.iobus.pkt_count_system.pc.south_bridge.io_apic.int_master::system.ruby.l0_cntrl2.sequencer.pio-slave-port           22                       # Packet count per connected master and slave (bytes)
system.iobus.pkt_count_system.pc.south_bridge.io_apic.int_master::system.ruby.l0_cntrl3.sequencer.pio-slave-port           24                       # Packet count per connected master and slave (bytes)
system.iobus.pkt_count_system.pc.south_bridge.io_apic.int_master::total           90                       # Packet count per connected master and slave (bytes)
system.iobus.pkt_count_system.ruby.l0_cntrl0.sequencer.mem-master-port::system.pc.south_bridge.ide.pio          494                       # Packet count per connected master and slave (bytes)
system.iobus.pkt_count_system.ruby.l0_cntrl0.sequencer.mem-master-port::system.pc.south_bridge.io_apic.pio            6                       # Packet count per connected master and slave (bytes)
system.iobus.pkt_count_system.ruby.l0_cntrl0.sequencer.mem-master-port::system.pc.com_1.pio          174                       # Packet count per connected master and slave (bytes)
system.iobus.pkt_count_system.ruby.l0_cntrl0.sequencer.mem-master-port::system.ruby.l0_cntrl0.sequencer.pio-slave-port         1282                       # Packet count per connected master and slave (bytes)
system.iobus.pkt_count_system.ruby.l0_cntrl0.sequencer.mem-master-port::system.ruby.l0_cntrl1.sequencer.pio-slave-port            6                       # Packet count per connected master and slave (bytes)
system.iobus.pkt_count_system.ruby.l0_cntrl0.sequencer.mem-master-port::system.ruby.l0_cntrl3.sequencer.pio-slave-port            2                       # Packet count per connected master and slave (bytes)
system.iobus.pkt_count_system.ruby.l0_cntrl0.sequencer.mem-master-port::total         1964                       # Packet count per connected master and slave (bytes)
system.iobus.pkt_count_system.ruby.l0_cntrl1.sequencer.mem-master-port::system.pc.south_bridge.ide.pio          528                       # Packet count per connected master and slave (bytes)
system.iobus.pkt_count_system.ruby.l0_cntrl1.sequencer.mem-master-port::system.pc.south_bridge.io_apic.pio            8                       # Packet count per connected master and slave (bytes)
system.iobus.pkt_count_system.ruby.l0_cntrl1.sequencer.mem-master-port::system.ruby.l0_cntrl0.sequencer.pio-slave-port            4                       # Packet count per connected master and slave (bytes)
system.iobus.pkt_count_system.ruby.l0_cntrl1.sequencer.mem-master-port::system.ruby.l0_cntrl1.sequencer.pio-slave-port         1276                       # Packet count per connected master and slave (bytes)
system.iobus.pkt_count_system.ruby.l0_cntrl1.sequencer.mem-master-port::system.ruby.l0_cntrl2.sequencer.pio-slave-port            2                       # Packet count per connected master and slave (bytes)
system.iobus.pkt_count_system.ruby.l0_cntrl1.sequencer.mem-master-port::total         1818                       # Packet count per connected master and slave (bytes)
system.iobus.pkt_count_system.ruby.l0_cntrl2.sequencer.mem-master-port::system.pc.south_bridge.ide.pio          426                       # Packet count per connected master and slave (bytes)
system.iobus.pkt_count_system.ruby.l0_cntrl2.sequencer.mem-master-port::system.pc.south_bridge.io_apic.pio            8                       # Packet count per connected master and slave (bytes)
system.iobus.pkt_count_system.ruby.l0_cntrl2.sequencer.mem-master-port::system.pc.com_1.pio            2                       # Packet count per connected master and slave (bytes)
system.iobus.pkt_count_system.ruby.l0_cntrl2.sequencer.mem-master-port::system.ruby.l0_cntrl0.sequencer.pio-slave-port            2                       # Packet count per connected master and slave (bytes)
system.iobus.pkt_count_system.ruby.l0_cntrl2.sequencer.mem-master-port::system.ruby.l0_cntrl1.sequencer.pio-slave-port            2                       # Packet count per connected master and slave (bytes)
system.iobus.pkt_count_system.ruby.l0_cntrl2.sequencer.mem-master-port::system.ruby.l0_cntrl2.sequencer.pio-slave-port         1270                       # Packet count per connected master and slave (bytes)
system.iobus.pkt_count_system.ruby.l0_cntrl2.sequencer.mem-master-port::system.ruby.l0_cntrl3.sequencer.pio-slave-port            2                       # Packet count per connected master and slave (bytes)
system.iobus.pkt_count_system.ruby.l0_cntrl2.sequencer.mem-master-port::total         1712                       # Packet count per connected master and slave (bytes)
system.iobus.pkt_count_system.ruby.l0_cntrl3.sequencer.mem-master-port::system.pc.south_bridge.ide.pio          438                       # Packet count per connected master and slave (bytes)
system.iobus.pkt_count_system.ruby.l0_cntrl3.sequencer.mem-master-port::system.pc.south_bridge.io_apic.pio            8                       # Packet count per connected master and slave (bytes)
system.iobus.pkt_count_system.ruby.l0_cntrl3.sequencer.mem-master-port::system.ruby.l0_cntrl0.sequencer.pio-slave-port            2                       # Packet count per connected master and slave (bytes)
system.iobus.pkt_count_system.ruby.l0_cntrl3.sequencer.mem-master-port::system.ruby.l0_cntrl3.sequencer.pio-slave-port         1264                       # Packet count per connected master and slave (bytes)
system.iobus.pkt_count_system.ruby.l0_cntrl3.sequencer.mem-master-port::total         1712                       # Packet count per connected master and slave (bytes)
system.iobus.pkt_count::total                    7296                       # Packet count per connected master and slave (bytes)
system.iobus.pkt_size_system.pc.south_bridge.io_apic.int_master::system.ruby.l0_cntrl0.sequencer.pio-slave-port           44                       # Cumulative packet size per connected master and slave (bytes)
system.iobus.pkt_size_system.pc.south_bridge.io_apic.int_master::system.ruby.l0_cntrl1.sequencer.pio-slave-port           44                       # Cumulative packet size per connected master and slave (bytes)
system.iobus.pkt_size_system.pc.south_bridge.io_apic.int_master::system.ruby.l0_cntrl2.sequencer.pio-slave-port           44                       # Cumulative packet size per connected master and slave (bytes)
system.iobus.pkt_size_system.pc.south_bridge.io_apic.int_master::system.ruby.l0_cntrl3.sequencer.pio-slave-port           48                       # Cumulative packet size per connected master and slave (bytes)
system.iobus.pkt_size_system.pc.south_bridge.io_apic.int_master::total          180                       # Cumulative packet size per connected master and slave (bytes)
system.iobus.pkt_size_system.ruby.l0_cntrl0.sequencer.mem-master-port::system.pc.south_bridge.ide.pio          280                       # Cumulative packet size per connected master and slave (bytes)
system.iobus.pkt_size_system.ruby.l0_cntrl0.sequencer.mem-master-port::system.pc.south_bridge.io_apic.pio           12                       # Cumulative packet size per connected master and slave (bytes)
system.iobus.pkt_size_system.ruby.l0_cntrl0.sequencer.mem-master-port::system.pc.com_1.pio           87                       # Cumulative packet size per connected master and slave (bytes)
system.iobus.pkt_size_system.ruby.l0_cntrl0.sequencer.mem-master-port::system.ruby.l0_cntrl0.sequencer.pio-slave-port         2564                       # Cumulative packet size per connected master and slave (bytes)
system.iobus.pkt_size_system.ruby.l0_cntrl0.sequencer.mem-master-port::system.ruby.l0_cntrl1.sequencer.pio-slave-port           12                       # Cumulative packet size per connected master and slave (bytes)
system.iobus.pkt_size_system.ruby.l0_cntrl0.sequencer.mem-master-port::system.ruby.l0_cntrl3.sequencer.pio-slave-port            4                       # Cumulative packet size per connected master and slave (bytes)
system.iobus.pkt_size_system.ruby.l0_cntrl0.sequencer.mem-master-port::total         2959                       # Cumulative packet size per connected master and slave (bytes)
system.iobus.pkt_size_system.ruby.l0_cntrl1.sequencer.mem-master-port::system.pc.south_bridge.ide.pio          300                       # Cumulative packet size per connected master and slave (bytes)
system.iobus.pkt_size_system.ruby.l0_cntrl1.sequencer.mem-master-port::system.pc.south_bridge.io_apic.pio           16                       # Cumulative packet size per connected master and slave (bytes)
system.iobus.pkt_size_system.ruby.l0_cntrl1.sequencer.mem-master-port::system.ruby.l0_cntrl0.sequencer.pio-slave-port            8                       # Cumulative packet size per connected master and slave (bytes)
system.iobus.pkt_size_system.ruby.l0_cntrl1.sequencer.mem-master-port::system.ruby.l0_cntrl1.sequencer.pio-slave-port         2552                       # Cumulative packet size per connected master and slave (bytes)
system.iobus.pkt_size_system.ruby.l0_cntrl1.sequencer.mem-master-port::system.ruby.l0_cntrl2.sequencer.pio-slave-port            4                       # Cumulative packet size per connected master and slave (bytes)
system.iobus.pkt_size_system.ruby.l0_cntrl1.sequencer.mem-master-port::total         2880                       # Cumulative packet size per connected master and slave (bytes)
system.iobus.pkt_size_system.ruby.l0_cntrl2.sequencer.mem-master-port::system.pc.south_bridge.ide.pio          240                       # Cumulative packet size per connected master and slave (bytes)
system.iobus.pkt_size_system.ruby.l0_cntrl2.sequencer.mem-master-port::system.pc.south_bridge.io_apic.pio           16                       # Cumulative packet size per connected master and slave (bytes)
system.iobus.pkt_size_system.ruby.l0_cntrl2.sequencer.mem-master-port::system.pc.com_1.pio            1                       # Cumulative packet size per connected master and slave (bytes)
system.iobus.pkt_size_system.ruby.l0_cntrl2.sequencer.mem-master-port::system.ruby.l0_cntrl0.sequencer.pio-slave-port            4                       # Cumulative packet size per connected master and slave (bytes)
system.iobus.pkt_size_system.ruby.l0_cntrl2.sequencer.mem-master-port::system.ruby.l0_cntrl1.sequencer.pio-slave-port            4                       # Cumulative packet size per connected master and slave (bytes)
system.iobus.pkt_size_system.ruby.l0_cntrl2.sequencer.mem-master-port::system.ruby.l0_cntrl2.sequencer.pio-slave-port         2540                       # Cumulative packet size per connected master and slave (bytes)
system.iobus.pkt_size_system.ruby.l0_cntrl2.sequencer.mem-master-port::system.ruby.l0_cntrl3.sequencer.pio-slave-port            4                       # Cumulative packet size per connected master and slave (bytes)
system.iobus.pkt_size_system.ruby.l0_cntrl2.sequencer.mem-master-port::total         2809                       # Cumulative packet size per connected master and slave (bytes)
system.iobus.pkt_size_system.ruby.l0_cntrl3.sequencer.mem-master-port::system.pc.south_bridge.ide.pio          246                       # Cumulative packet size per connected master and slave (bytes)
system.iobus.pkt_size_system.ruby.l0_cntrl3.sequencer.mem-master-port::system.pc.south_bridge.io_apic.pio           16                       # Cumulative packet size per connected master and slave (bytes)
system.iobus.pkt_size_system.ruby.l0_cntrl3.sequencer.mem-master-port::system.ruby.l0_cntrl0.sequencer.pio-slave-port            4                       # Cumulative packet size per connected master and slave (bytes)
system.iobus.pkt_size_system.ruby.l0_cntrl3.sequencer.mem-master-port::system.ruby.l0_cntrl3.sequencer.pio-slave-port         2528                       # Cumulative packet size per connected master and slave (bytes)
system.iobus.pkt_size_system.ruby.l0_cntrl3.sequencer.mem-master-port::total         2794                       # Cumulative packet size per connected master and slave (bytes)
system.iobus.pkt_size::total                    11622                       # Cumulative packet size per connected master and slave (bytes)
system.iobus.reqLayer2.occupancy              1658500                       # Layer occupancy (ticks)
system.iobus.reqLayer2.utilization                0.0                       # Layer utilization (%)
system.iobus.reqLayer8.occupancy                25996                       # Layer occupancy (ticks)
system.iobus.reqLayer8.utilization                0.0                       # Layer utilization (%)
system.iobus.reqLayer12.occupancy              113500                       # Layer occupancy (ticks)
system.iobus.reqLayer12.utilization               0.0                       # Layer utilization (%)
system.iobus.reqLayer17.occupancy             1578989                       # Layer occupancy (ticks)
system.iobus.reqLayer17.utilization               0.0                       # Layer utilization (%)
system.iobus.reqLayer18.occupancy             1730957                       # Layer occupancy (ticks)
system.iobus.reqLayer18.utilization               0.0                       # Layer utilization (%)
system.iobus.reqLayer19.occupancy             1572487                       # Layer occupancy (ticks)
system.iobus.reqLayer19.utilization               0.0                       # Layer utilization (%)
system.iobus.reqLayer20.occupancy             1564988                       # Layer occupancy (ticks)
system.iobus.reqLayer20.utilization               0.0                       # Layer utilization (%)
system.iobus.respLayer0.occupancy               78459                       # Layer occupancy (ticks)
system.iobus.respLayer0.utilization               0.0                       # Layer utilization (%)
system.iobus.respLayer2.occupancy             1457500                       # Layer occupancy (ticks)
system.iobus.respLayer2.utilization               0.0                       # Layer utilization (%)
system.iobus.respLayer4.occupancy             1321500                       # Layer occupancy (ticks)
system.iobus.respLayer4.utilization               0.0                       # Layer utilization (%)
system.iobus.respLayer6.occupancy             1254500                       # Layer occupancy (ticks)
system.iobus.respLayer6.utilization               0.0                       # Layer utilization (%)
system.iobus.respLayer8.occupancy             1255000                       # Layer occupancy (ticks)
system.iobus.respLayer8.utilization               0.0                       # Layer utilization (%)
system.pc.south_bridge.ide.disks.dma_read_full_pages          357                       # Number of full page size DMA reads (not PRD).
system.pc.south_bridge.ide.disks.dma_read_bytes      1462272                       # Number of bytes transfered via DMA reads (not PRD).
system.pc.south_bridge.ide.disks.dma_read_txs          357                       # Number of DMA read transactions (not PRD).
system.pc.south_bridge.ide.disks.dma_write_full_pages            0                       # Number of full page size DMA writes.
system.pc.south_bridge.ide.disks.dma_write_bytes            0                       # Number of bytes transfered via DMA writes.
system.pc.south_bridge.ide.disks.dma_write_txs            0                       # Number of DMA write transactions.
system.ruby.clk_domain.clock                      500                       # Clock period in ticks
system.ruby.delayHist::bucket_size                  2                       # delay histogram for all message
system.ruby.delayHist::max_bucket                  19                       # delay histogram for all message
system.ruby.delayHist::samples               45780195                       # delay histogram for all message
system.ruby.delayHist::mean                  0.130793                       # delay histogram for all message
system.ruby.delayHist::stdev                 0.711680                       # delay histogram for all message
system.ruby.delayHist                    |    44278433     96.72%     96.72% |       14279      0.03%     96.75% |     1484559      3.24%     99.99% |        2043      0.00%    100.00% |         147      0.00%    100.00% |         695      0.00%    100.00% |           8      0.00%    100.00% |          22      0.00%    100.00% |           9      0.00%    100.00% |           0      0.00%    100.00% # delay histogram for all message
system.ruby.delayHist::total                 45780195                       # delay histogram for all message
system.ruby.outstanding_req_hist_seqr::bucket_size            1                      
system.ruby.outstanding_req_hist_seqr::max_bucket            9                      
system.ruby.outstanding_req_hist_seqr::samples   2281291755                      
system.ruby.outstanding_req_hist_seqr::mean     1.004797                      
system.ruby.outstanding_req_hist_seqr::gmean     1.003331                      
system.ruby.outstanding_req_hist_seqr::stdev     0.069095                      
system.ruby.outstanding_req_hist_seqr    |           0      0.00%      0.00% |  2270348012     99.52%     99.52% |    10943743      0.48%    100.00% |           0      0.00%    100.00% |           0      0.00%    100.00% |           0      0.00%    100.00% |           0      0.00%    100.00% |           0      0.00%    100.00% |           0      0.00%    100.00% |           0      0.00%    100.00%
system.ruby.outstanding_req_hist_seqr::total   2281291755                      
system.ruby.latency_hist_seqr::bucket_size          256                      
system.ruby.latency_hist_seqr::max_bucket         2559                      
system.ruby.latency_hist_seqr::samples     2281291755                      
system.ruby.latency_hist_seqr::mean          1.174181                      
[...]
system.ruby.L1Cache_Controller.Fwd_GETS::total        32309                      
system.ruby.L1Cache_Controller.Data      |         803     14.95%     14.95% |         755     14.05%     29.00% |        1787     33.26%     62.26% |        2028     37.74%    100.00%
system.ruby.L1Cache_Controller.Data::total         5373                      
system.ruby.L1Cache_Controller.Data_Exclusive |       99565      3.15%      3.15% |     2523292     79.86%     83.01% |      488218     15.45%     98.46% |       48508      1.54%    100.00%
system.ruby.L1Cache_Controller.Data_Exclusive::total      3159583                      
system.ruby.L1Cache_Controller.DataS_fromL1 |        8352     25.85%     25.85% |        4604     14.25%     40.10% |       12993     40.21%     80.32% |        6360     19.68%    100.00%
system.ruby.L1Cache_Controller.DataS_fromL1::total        32309                      
system.ruby.L1Cache_Controller.Data_all_Acks |       94155      7.49%      7.49% |      819675     65.17%     72.65% |      269450     21.42%     94.08% |       74515      5.92%    100.00%
system.ruby.L1Cache_Controller.Data_all_Acks::total      1257795                      
system.ruby.L1Cache_Controller.L0_Ack    |       69521     14.58%     14.58% |      207711     43.55%     58.12% |      136988     28.72%     86.85% |       62739     13.15%    100.00%
system.ruby.L1Cache_Controller.L0_Ack::total       476959                      
system.ruby.L1Cache_Controller.Ack       |       13558     50.26%     50.26% |        4360     16.16%     66.43% |        4670     17.31%     83.74% |        4386     16.26%    100.00%
system.ruby.L1Cache_Controller.Ack::total        26974                      
system.ruby.L1Cache_Controller.Ack_all   |        6294     36.46%     36.46% |        2735     15.84%     52.30% |        4232     24.51%     76.81% |        4004     23.19%    100.00%
system.ruby.L1Cache_Controller.Ack_all::total        17265                      
system.ruby.L1Cache_Controller.WB_Ack    |      125038      3.08%      3.08% |     3225866     79.57%     82.65% |      645448     15.92%     98.58% |       57753      1.42%    100.00%
system.ruby.L1Cache_Controller.WB_Ack::total      4054105                      
system.ruby.L1Cache_Controller.I.Load    |      162704      4.63%      4.63% |     2639814     75.12%     79.75% |      605649     17.23%     96.98% |      106025      3.02%    100.00%
system.ruby.L1Cache_Controller.I.Load::total      3514192                      
system.ruby.L1Cache_Controller.I.Store   |       40171      4.27%      4.27% |      708512     75.30%     79.57% |      166799     17.73%     97.30% |       25386      2.70%    100.00%
system.ruby.L1Cache_Controller.I.Store::total       940868                      
system.ruby.L1Cache_Controller.I.Inv     |        7614     27.18%     27.18% |        7782     27.78%     54.96% |        7908     28.23%     83.19% |        4709     16.81%    100.00%
system.ruby.L1Cache_Controller.I.Inv::total        28013                      
system.ruby.L1Cache_Controller.S.Load    |      256995     15.07%     15.07% |      881960     51.72%     66.80% |      331704     19.45%     86.25% |      234458     13.75%    100.00%
system.ruby.L1Cache_Controller.S.Load::total      1705117                      
system.ruby.L1Cache_Controller.S.Store   |        3529     36.40%     36.40% |        1939     20.00%     56.39% |        2342     24.15%     80.55% |        1886     19.45%    100.00%
system.ruby.L1Cache_Controller.S.Store::total         9696                      
system.ruby.L1Cache_Controller.S.L0_Invalidate_Own |       54910     17.15%     17.15% |      111199     34.74%     51.90% |      105788     33.05%     84.95% |       48188     15.05%    100.00%
system.ruby.L1Cache_Controller.S.L0_Invalidate_Own::total       320085                      
system.ruby.L1Cache_Controller.S.L0_Invalidate_Else |        8198     23.70%     23.70% |        4069     11.76%     35.47% |       11536     33.35%     68.82% |       10786     31.18%    100.00%
system.ruby.L1Cache_Controller.S.L0_Invalidate_Else::total        34589                      
system.ruby.L1Cache_Controller.SS.Load   |        3337     32.46%     32.46% |         796      7.74%     40.20% |        2407     23.41%     63.62% |        3740     36.38%    100.00%
system.ruby.L1Cache_Controller.SS.Load::total        10280                      
system.ruby.L1Cache_Controller.SS.Store  |        1962     89.34%     89.34% |          41      1.87%     91.21% |         103      4.69%     95.90% |          90      4.10%    100.00%
system.ruby.L1Cache_Controller.SS.Store::total         2196                      
system.ruby.L1Cache_Controller.SS.Inv    |       11083     24.09%     24.09% |        5746     12.49%     36.58% |       13662     29.70%     66.28% |       15509     33.72%    100.00%
system.ruby.L1Cache_Controller.SS.Inv::total        46000                      
system.ruby.L1Cache_Controller.SS.L1_Replacement |       56518     17.18%     17.18% |      114396     34.77%     51.95% |      107322     32.62%     84.57% |       50776     15.43%    100.00%
system.ruby.L1Cache_Controller.SS.L1_Replacement::total       329012                      
system.ruby.L1Cache_Controller.E.WriteBack |       96756      3.15%      3.15% |     2448633     79.84%     82.99% |      475958     15.52%     98.51% |       45651      1.49%    100.00%
system.ruby.L1Cache_Controller.E.WriteBack::total      3066998                      
system.ruby.L1Cache_Controller.E.L0_Invalidate_Own |        1698      1.95%      1.95% |       74253     85.13%     87.08% |       10597     12.15%     99.23% |         673      0.77%    100.00%
system.ruby.L1Cache_Controller.E.L0_Invalidate_Own::total        87221                      
system.ruby.L1Cache_Controller.E.L0_Invalidate_Else |        1070     20.26%     20.26% |         372      7.04%     27.31% |        1688     31.96%     59.27% |        2151     40.73%    100.00%
system.ruby.L1Cache_Controller.E.L0_Invalidate_Else::total         5281                      
system.ruby.L1Cache_Controller.EE.Inv    |         493     33.29%     33.29% |          75      5.06%     38.35% |         468     31.60%     69.95% |         445     30.05%    100.00%
system.ruby.L1Cache_Controller.EE.Inv::total         1481                      
system.ruby.L1Cache_Controller.EE.L1_Replacement |        1560      1.81%      1.81% |       73867     85.58%     87.39% |       10308     11.94%     99.33% |         580      0.67%    100.00%
system.ruby.L1Cache_Controller.EE.L1_Replacement::total        86315                      
system.ruby.L1Cache_Controller.EE.Fwd_GETX |          10     34.48%     34.48% |           4     13.79%     48.28% |           9     31.03%     79.31% |           6     20.69%    100.00%
system.ruby.L1Cache_Controller.EE.Fwd_GETX::total           29                      
system.ruby.L1Cache_Controller.EE.Fwd_GETS |         322     11.25%     11.25% |         219      7.65%     18.91% |         943     32.96%     51.87% |        1377     48.13%    100.00%
system.ruby.L1Cache_Controller.EE.Fwd_GETS::total         2861                      
system.ruby.L1Cache_Controller.M.WriteBack |      241261      1.01%      1.01% |    18978083     79.14%     80.15% |     4610287     19.23%     99.37% |      150676      0.63%    100.00%
system.ruby.L1Cache_Controller.M.WriteBack::total     23980307                      
system.ruby.L1Cache_Controller.M.L0_Invalidate_Own |        5468     14.03%     14.03% |       20554     52.75%     66.79% |       10755     27.60%     94.39% |        2186      5.61%    100.00%
system.ruby.L1Cache_Controller.M.L0_Invalidate_Own::total        38963                      
system.ruby.L1Cache_Controller.M.L0_Invalidate_Else |        4981     45.16%     45.16% |         727      6.59%     51.75% |        2586     23.45%     75.19% |        2736     24.81%    100.00%
system.ruby.L1Cache_Controller.M.L0_Invalidate_Else::total        11030                      
system.ruby.L1Cache_Controller.MM.Load   |      144636      0.68%      0.68% |    16783872     79.23%     79.91% |     4163830     19.66%     99.56% |       92181      0.44%    100.00%
system.ruby.L1Cache_Controller.MM.Load::total     21184519                      
system.ruby.L1Cache_Controller.MM.Store  |       61417      3.24%      3.24% |     1505006     79.50%     82.75% |      290506     15.35%     98.09% |       36092      1.91%    100.00%
system.ruby.L1Cache_Controller.MM.Store::total      1893021                      
system.ruby.L1Cache_Controller.MM.Inv    |        8110     42.51%     42.51% |        1518      7.96%     50.46% |        4294     22.51%     72.97% |        5158     27.03%    100.00%
system.ruby.L1Cache_Controller.MM.Inv::total        19080                      
system.ruby.L1Cache_Controller.MM.L1_Replacement |      123478      3.11%      3.11% |     3151999     79.44%     82.55% |      635140     16.01%     98.56% |       57173      1.44%    100.00%
system.ruby.L1Cache_Controller.MM.L1_Replacement::total      3967790                      
system.ruby.L1Cache_Controller.MM.Fwd_GETX |        1362     28.27%     28.27% |         566     11.75%     40.02% |        1639     34.03%     74.05% |        1250     25.95%    100.00%
system.ruby.L1Cache_Controller.MM.Fwd_GETX::total         4817                      
system.ruby.L1Cache_Controller.MM.Fwd_GETS |        9309     31.61%     31.61% |        5469     18.57%     50.18% |        5229     17.76%     67.94% |        9441     32.06%    100.00%
system.ruby.L1Cache_Controller.MM.Fwd_GETS::total        29448                      
system.ruby.L1Cache_Controller.IS.Data_Exclusive |       99565      3.15%      3.15% |     2523292     79.86%     83.01% |      488218     15.45%     98.46% |       48508      1.54%    100.00%
system.ruby.L1Cache_Controller.IS.Data_Exclusive::total      3159583                      
system.ruby.L1Cache_Controller.IS.DataS_fromL1 |        8352     25.85%     25.85% |        4604     14.25%     40.10% |       12993     40.21%     80.32% |        6360     19.68%    100.00%
system.ruby.L1Cache_Controller.IS.DataS_fromL1::total        32309                      
system.ruby.L1Cache_Controller.IS.Data_all_Acks |       54787     17.00%     17.00% |      111918     34.72%     51.72% |      104438     32.40%     84.13% |       51157     15.87%    100.00%
system.ruby.L1Cache_Controller.IS.Data_all_Acks::total       322300                      
system.ruby.L1Cache_Controller.IM.Data   |         803     14.95%     14.95% |         755     14.05%     29.00% |        1787     33.26%     62.26% |        2028     37.74%    100.00%
system.ruby.L1Cache_Controller.IM.Data::total         5373                      
system.ruby.L1Cache_Controller.IM.Data_all_Acks |       39368      4.21%      4.21% |      707757     75.66%     79.86% |      165012     17.64%     97.50% |       23358      2.50%    100.00%
system.ruby.L1Cache_Controller.IM.Data_all_Acks::total       935495                      
system.ruby.L1Cache_Controller.SM.Ack    |       13558     50.26%     50.26% |        4360     16.16%     66.43% |        4670     17.31%     83.74% |        4386     16.26%    100.00%
system.ruby.L1Cache_Controller.SM.Ack::total        26974                      
system.ruby.L1Cache_Controller.SM.Ack_all |        6294     36.46%     36.46% |        2735     15.84%     52.30% |        4232     24.51%     76.81% |        4004     23.19%    100.00%
system.ruby.L1Cache_Controller.SM.Ack_all::total        17265                      
system.ruby.L1Cache_Controller.M_I.WB_Ack |      125038      3.08%      3.08% |     3225866     79.57%     82.65% |      645448     15.92%     98.58% |       57753      1.42%    100.00%
system.ruby.L1Cache_Controller.M_I.WB_Ack::total      4054105                      
system.ruby.L1Cache_Controller.S_IL0.L0_Invalidate_Own |       54910     17.15%     17.15% |      111199     34.74%     51.90% |      105788     33.05%     84.95% |       48188     15.05%    100.00%
system.ruby.L1Cache_Controller.S_IL0.L0_Invalidate_Own::total       320085                      
system.ruby.L1Cache_Controller.S_IL0.L0_Invalidate_Else |        8198     23.70%     23.70% |        4069     11.76%     35.47% |       11536     33.35%     68.82% |       10786     31.18%    100.00%
system.ruby.L1Cache_Controller.S_IL0.L0_Invalidate_Else::total        34589                      
system.ruby.L1Cache_Controller.S_IL0.L0_Ack |       63108     17.79%     17.79% |      115268     32.50%     50.29% |      117324     33.08%     83.37% |       58974     16.63%    100.00%
system.ruby.L1Cache_Controller.S_IL0.L0_Ack::total       354674                      
system.ruby.L1Cache_Controller.E_IL0.L0_DataAck |         383     21.09%     21.09% |         460     25.33%     46.42% |         557     30.67%     77.09% |         416     22.91%    100.00%
system.ruby.L1Cache_Controller.E_IL0.L0_DataAck::total         1816                      
system.ruby.L1Cache_Controller.E_IL0.L0_Invalidate_Own |        1698      1.95%      1.95% |       74253     85.13%     87.08% |       10597     12.15%     99.23% |         673      0.77%    100.00%
system.ruby.L1Cache_Controller.E_IL0.L0_Invalidate_Own::total        87221                      
system.ruby.L1Cache_Controller.E_IL0.L0_Invalidate_Else |        1070     20.26%     20.26% |         372      7.04%     27.31% |        1688     31.96%     59.27% |        2151     40.73%    100.00%
system.ruby.L1Cache_Controller.E_IL0.L0_Invalidate_Else::total         5281                      
system.ruby.L1Cache_Controller.E_IL0.L0_Ack |        2385      2.63%      2.63% |       74165     81.78%     84.41% |       11728     12.93%     97.34% |        2408      2.66%    100.00%
system.ruby.L1Cache_Controller.E_IL0.L0_Ack::total        90686                      
system.ruby.L1Cache_Controller.M_IL0.L0_DataAck |        6421     34.91%     34.91% |        3003     16.33%     51.23% |        5405     29.38%     80.62% |        3565     19.38%    100.00%
system.ruby.L1Cache_Controller.M_IL0.L0_DataAck::total        18394                      
system.ruby.L1Cache_Controller.M_IL0.L0_Invalidate_Own |        5468     14.03%     14.03% |       20554     52.75%     66.79% |       10755     27.60%     94.39% |        2186      5.61%    100.00%
system.ruby.L1Cache_Controller.M_IL0.L0_Invalidate_Own::total        38963                      
system.ruby.L1Cache_Controller.M_IL0.L0_Invalidate_Else |        4981     45.16%     45.16% |         727      6.59%     51.75% |        2586     23.45%     75.19% |        2736     24.81%    100.00%
system.ruby.L1Cache_Controller.M_IL0.L0_Invalidate_Else::total        11030                      
system.ruby.L1Cache_Controller.M_IL0.L0_Ack |        4028     12.75%     12.75% |       18278     57.84%     70.59% |        7936     25.11%     95.71% |        1357      4.29%    100.00%
system.ruby.L1Cache_Controller.M_IL0.L0_Ack::total        31599                      
system.ruby.L2Cache_Controller.L1_GETS        3514253      0.00%      0.00%
system.ruby.L2Cache_Controller.L1_GETX         940870      0.00%      0.00%
system.ruby.L2Cache_Controller.L1_UPGRADE        11892      0.00%      0.00%
system.ruby.L2Cache_Controller.L1_PUTX        4054105      0.00%      0.00%
system.ruby.L2Cache_Controller.L2_Replacement      1232899      0.00%      0.00%
system.ruby.L2Cache_Controller.L2_Replacement_clean      1038922      0.00%      0.00%
system.ruby.L2Cache_Controller.Mem_Data       2274618      0.00%      0.00%
system.ruby.L2Cache_Controller.Mem_Ack        2272261      0.00%      0.00%
system.ruby.L2Cache_Controller.WB_Data          23360      0.00%      0.00%
system.ruby.L2Cache_Controller.WB_Data_clean        28029      0.00%      0.00%
system.ruby.L2Cache_Controller.Ack              28135      0.00%      0.00%
system.ruby.L2Cache_Controller.Ack_all          15012      0.00%      0.00%
system.ruby.L2Cache_Controller.Unblock          32309      0.00%      0.00%
system.ruby.L2Cache_Controller.Exclusive_Unblock      4112343      0.00%      0.00%
system.ruby.L2Cache_Controller.MEM_Inv            880      0.00%      0.00%
system.ruby.L2Cache_Controller.NP.L1_GETS      1508797      0.00%      0.00%
system.ruby.L2Cache_Controller.NP.L1_GETX       765821      0.00%      0.00%
system.ruby.L2Cache_Controller.SS.L1_GETS       322278      0.00%      0.00%
system.ruby.L2Cache_Controller.SS.L1_GETX         5373      0.00%      0.00%
system.ruby.L2Cache_Controller.SS.L1_UPGRADE        11892      0.00%      0.00%
system.ruby.L2Cache_Controller.SS.L2_Replacement         1469      0.00%      0.00%
system.ruby.L2Cache_Controller.SS.L2_Replacement_clean        12062      0.00%      0.00%
system.ruby.L2Cache_Controller.M.L1_GETS      1650797      0.00%      0.00%
system.ruby.L2Cache_Controller.M.L1_GETX       164828      0.00%      0.00%
system.ruby.L2Cache_Controller.M.L2_Replacement      1228398      0.00%      0.00%
system.ruby.L2Cache_Controller.M.L2_Replacement_clean      1009432      0.00%      0.00%
system.ruby.L2Cache_Controller.M.MEM_Inv          339      0.00%      0.00%
system.ruby.L2Cache_Controller.MT.L1_GETS        32309      0.00%      0.00%
system.ruby.L2Cache_Controller.MT.L1_GETX         4846      0.00%      0.00%
system.ruby.L2Cache_Controller.MT.L1_PUTX      4054105      0.00%      0.00%
system.ruby.L2Cache_Controller.MT.L2_Replacement         3032      0.00%      0.00%
system.ruby.L2Cache_Controller.MT.L2_Replacement_clean        17428      0.00%      0.00%
system.ruby.L2Cache_Controller.MT.MEM_Inv          101      0.00%      0.00%
system.ruby.L2Cache_Controller.M_I.L1_GETS            1      0.00%      0.00%
system.ruby.L2Cache_Controller.M_I.L1_GETX            1      0.00%      0.00%
system.ruby.L2Cache_Controller.M_I.Mem_Ack      2272261      0.00%      0.00%
system.ruby.L2Cache_Controller.M_I.MEM_Inv          339      0.00%      0.00%
system.ruby.L2Cache_Controller.MT_I.WB_Data         2435      0.00%      0.00%
system.ruby.L2Cache_Controller.MT_I.WB_Data_clean          641      0.00%      0.00%
system.ruby.L2Cache_Controller.MT_I.Ack_all           57      0.00%      0.00%
system.ruby.L2Cache_Controller.MT_I.MEM_Inv          101      0.00%      0.00%
system.ruby.L2Cache_Controller.MCT_I.WB_Data         8407      0.00%      0.00%
system.ruby.L2Cache_Controller.MCT_I.WB_Data_clean         7597      0.00%      0.00%
system.ruby.L2Cache_Controller.MCT_I.Ack_all         1424      0.00%      0.00%
system.ruby.L2Cache_Controller.I_I.Ack          26422      0.00%      0.00%
system.ruby.L2Cache_Controller.I_I.Ack_all        12062      0.00%      0.00%
system.ruby.L2Cache_Controller.S_I.Ack           1713      0.00%      0.00%
system.ruby.L2Cache_Controller.S_I.Ack_all         1469      0.00%      0.00%
system.ruby.L2Cache_Controller.ISS.L1_GETS           11      0.00%      0.00%
system.ruby.L2Cache_Controller.ISS.Mem_Data      1508786      0.00%      0.00%
system.ruby.L2Cache_Controller.IS.Mem_Data           11      0.00%      0.00%
system.ruby.L2Cache_Controller.IM.Mem_Data       765821      0.00%      0.00%
system.ruby.L2Cache_Controller.SS_MB.L1_GETS           33      0.00%      0.00%
system.ruby.L2Cache_Controller.SS_MB.Exclusive_Unblock        17265      0.00%      0.00%
system.ruby.L2Cache_Controller.MT_MB.L1_GETS           25      0.00%      0.00%
system.ruby.L2Cache_Controller.MT_MB.L1_GETX            1      0.00%      0.00%
system.ruby.L2Cache_Controller.MT_MB.Exclusive_Unblock      4095078      0.00%      0.00%
system.ruby.L2Cache_Controller.MT_IIB.L1_GETS            2      0.00%      0.00%
system.ruby.L2Cache_Controller.MT_IIB.WB_Data        12518      0.00%      0.00%
system.ruby.L2Cache_Controller.MT_IIB.WB_Data_clean        19791      0.00%      0.00%
system.ruby.L2Cache_Controller.MT_SB.Unblock        32309      0.00%      0.00%

---------- End Simulation Statistics   ----------
