Redirecting stdout to /root/anthony/lelec2990-sim/blackscholes/X86_MOESI_CMP_directory/l1d_assoc/4way/stdout.txt
Redirecting stderr to /root/anthony/lelec2990-sim/blackscholes/X86_MOESI_CMP_directory/l1d_assoc/4way/stderr.txt
gem5 Simulator System.  http://gem5.org
gem5 is copyrighted software; use the --copyright option for details.

gem5 compiled Jun  1 2016 12:55:00
gem5 started Jun  2 2016 03:02:38
gem5 executing on baluran.info.ucl.ac.be, pid 726901
command line: /root/anthony/gem5/build/X86_MOESI_CMP_directory/gem5.opt --outdir=/root/anthony/lelec2990-sim/blackscholes/X86_MOESI_CMP_directory/l1d_assoc/4way -e --stderr-file=/root/anthony/lelec2990-sim/blackscholes/X86_MOESI_CMP_directory/l1d_assoc/4way/stderr.txt -r --stdout-file=/root/anthony/lelec2990-sim/blackscholes/X86_MOESI_CMP_directory/l1d_assoc/4way/stdout.txt /root/anthony/gem5/configs/example/fs.py --mem-size 1GB --script /root/anthony/gem5/sim_script --num-cpus 4 --ruby -r 1 --restore-with-cpu timing --l1d_assoc 4

Global frequency set at 1000000000000 ticks per second
info: kernel located at: /root/anthony/debian/binaries/vmlinux
      0: rtc: Real-time clock set to Sun Jan  1 00:00:00 2012
**** REAL SIMULATION ****
info: Entering event queue @ 52243707871500.  Starting simulation...
Exiting @ tick 52745638158001 because m5_exit instruction encountered
