
---------- Begin Simulation Statistics ----------
sim_seconds                                  4.515970                       # Number of seconds simulated
sim_ticks                                4515970078000                       # Number of ticks simulated
final_tick                               60099758692501                       # Number of ticks from beginning of simulation (restored from checkpoints and never reset)
sim_freq                                 1000000000000                       # Frequency of simulated ticks
host_inst_rate                                 119215                       # Simulator instruction rate (inst/s)
host_op_rate                                   199957                       # Simulator op (including micro ops) rate (op/s)
host_tick_rate                              350124289                       # Simulator tick rate (ticks/s)
host_mem_usage                                1811216                       # Number of bytes of host memory used
host_seconds                                 12898.19                       # Real time elapsed on the host
sim_insts                                  1537653567                       # Number of instructions simulated
sim_ops                                    2579084658                       # Number of ops (including micro ops) simulated
system.voltage_domain.voltage                       1                       # Voltage in Volts
system.clk_domain.clock                          1000                       # Clock period in ticks
system.mem_ctrls.bytes_read::ruby.dir_cntrl0   2903163648                       # Number of bytes read from this memory
system.mem_ctrls.bytes_read::total         2903163648                       # Number of bytes read from this memory
system.mem_ctrls.bytes_written::ruby.dir_cntrl0   2897002880                       # Number of bytes written to this memory
system.mem_ctrls.bytes_written::total      2897002880                       # Number of bytes written to this memory
system.mem_ctrls.num_reads::ruby.dir_cntrl0     22680966                       # Number of read requests responded to by this memory
system.mem_ctrls.num_reads::total            22680966                       # Number of read requests responded to by this memory
system.mem_ctrls.num_writes::ruby.dir_cntrl0     22632835                       # Number of write requests responded to by this memory
system.mem_ctrls.num_writes::total           22632835                       # Number of write requests responded to by this memory
system.mem_ctrls.bw_read::ruby.dir_cntrl0    642866006                       # Total read bandwidth from this memory (bytes/s)
system.mem_ctrls.bw_read::total             642866006                       # Total read bandwidth from this memory (bytes/s)
system.mem_ctrls.bw_write::ruby.dir_cntrl0    641501788                       # Write bandwidth from this memory (bytes/s)
system.mem_ctrls.bw_write::total            641501788                       # Write bandwidth from this memory (bytes/s)
system.mem_ctrls.bw_total::ruby.dir_cntrl0   1284367794                       # Total bandwidth to/from this memory (bytes/s)
system.mem_ctrls.bw_total::total           1284367794                       # Total bandwidth to/from this memory (bytes/s)
system.mem_ctrls.readReqs                    22680966                       # Number of read requests accepted
system.mem_ctrls.writeReqs                   22632835                       # Number of write requests accepted
system.mem_ctrls.readBursts                  45361932                       # Number of DRAM read bursts, including those serviced by the write queue
system.mem_ctrls.writeBursts                 45265670                       # Number of DRAM write bursts, including those merged in the write queue
system.mem_ctrls.bytesReadDRAM             2431718336                       # Total number of bytes read from DRAM
system.mem_ctrls.bytesReadWrQ               471445312                       # Total number of bytes read from write queue
system.mem_ctrls.bytesWritten              2742737088                       # Total number of bytes written to DRAM
system.mem_ctrls.bytesReadSys              2903163648                       # Total read bytes from the system interface side
system.mem_ctrls.bytesWrittenSys           2897002880                       # Total written bytes from the system interface side
system.mem_ctrls.servicedByWrQ                7366333                       # Number of DRAM read bursts serviced by the write queue
system.mem_ctrls.mergedWrBursts               2410397                       # Number of DRAM write bursts merged with an existing one
system.mem_ctrls.neitherReadNorWriteReqs            0                       # Number of requests that are neither read nor write
system.mem_ctrls.perBankRdBursts::0           1640851                       # Per bank write bursts
system.mem_ctrls.perBankRdBursts::1           2784977                       # Per bank write bursts
system.mem_ctrls.perBankRdBursts::2           2203256                       # Per bank write bursts
system.mem_ctrls.perBankRdBursts::3           2720272                       # Per bank write bursts
system.mem_ctrls.perBankRdBursts::4           2154439                       # Per bank write bursts
system.mem_ctrls.perBankRdBursts::5           9406563                       # Per bank write bursts
system.mem_ctrls.perBankRdBursts::6           1608894                       # Per bank write bursts
system.mem_ctrls.perBankRdBursts::7           1216570                       # Per bank write bursts
system.mem_ctrls.perBankRdBursts::8           1067325                       # Per bank write bursts
system.mem_ctrls.perBankRdBursts::9           6646470                       # Per bank write bursts
system.mem_ctrls.perBankRdBursts::10          1990969                       # Per bank write bursts
system.mem_ctrls.perBankRdBursts::11           982019                       # Per bank write bursts
system.mem_ctrls.perBankRdBursts::12           848463                       # Per bank write bursts
system.mem_ctrls.perBankRdBursts::13           855928                       # Per bank write bursts
system.mem_ctrls.perBankRdBursts::14           975176                       # Per bank write bursts
system.mem_ctrls.perBankRdBursts::15           893427                       # Per bank write bursts
system.mem_ctrls.perBankWrBursts::0           1705749                       # Per bank write bursts
system.mem_ctrls.perBankWrBursts::1           2909508                       # Per bank write bursts
system.mem_ctrls.perBankWrBursts::2           2639097                       # Per bank write bursts
system.mem_ctrls.perBankWrBursts::3           2809300                       # Per bank write bursts
system.mem_ctrls.perBankWrBursts::4           2271214                       # Per bank write bursts
system.mem_ctrls.perBankWrBursts::5          11498084                       # Per bank write bursts
system.mem_ctrls.perBankWrBursts::6           1670131                       # Per bank write bursts
system.mem_ctrls.perBankWrBursts::7           1241363                       # Per bank write bursts
system.mem_ctrls.perBankWrBursts::8           1084778                       # Per bank write bursts
system.mem_ctrls.perBankWrBursts::9           8003915                       # Per bank write bursts
system.mem_ctrls.perBankWrBursts::10          2250718                       # Per bank write bursts
system.mem_ctrls.perBankWrBursts::11          1002693                       # Per bank write bursts
system.mem_ctrls.perBankWrBursts::12           895247                       # Per bank write bursts
system.mem_ctrls.perBankWrBursts::13           945186                       # Per bank write bursts
system.mem_ctrls.perBankWrBursts::14          1027810                       # Per bank write bursts
system.mem_ctrls.perBankWrBursts::15           900474                       # Per bank write bursts
system.mem_ctrls.numRdRetry                         0                       # Number of times read queue was full causing retry
system.mem_ctrls.numWrRetry                         0                       # Number of times write queue was full causing retry
system.mem_ctrls.totGap                  4515970076000                       # Total gap between requests
system.mem_ctrls.readPktSize::0                     0                       # Read request sizes (log2)
system.mem_ctrls.readPktSize::1                     0                       # Read request sizes (log2)
system.mem_ctrls.readPktSize::2                     0                       # Read request sizes (log2)
system.mem_ctrls.readPktSize::3                     0                       # Read request sizes (log2)
system.mem_ctrls.readPktSize::4                     0                       # Read request sizes (log2)
system.mem_ctrls.readPktSize::5                     0                       # Read request sizes (log2)
system.mem_ctrls.readPktSize::6              45361932                       # Read request sizes (log2)
system.mem_ctrls.writePktSize::0                    0                       # Write request sizes (log2)
system.mem_ctrls.writePktSize::1                    0                       # Write request sizes (log2)
system.mem_ctrls.writePktSize::2                    0                       # Write request sizes (log2)
system.mem_ctrls.writePktSize::3                    0                       # Write request sizes (log2)
system.mem_ctrls.writePktSize::4                    0                       # Write request sizes (log2)
system.mem_ctrls.writePktSize::5                    0                       # Write request sizes (log2)
system.mem_ctrls.writePktSize::6             45265670                       # Write request sizes (log2)
system.mem_ctrls.rdQLenPdf::0                18946767                       # What read queue length does an incoming req see
system.mem_ctrls.rdQLenPdf::1                18818664                       # What read queue length does an incoming req see
system.mem_ctrls.rdQLenPdf::2                  119607                       # What read queue length does an incoming req see
system.mem_ctrls.rdQLenPdf::3                  106180                       # What read queue length does an incoming req see
system.mem_ctrls.rdQLenPdf::4                    2359                       # What read queue length does an incoming req see
system.mem_ctrls.rdQLenPdf::5                    1969                       # What read queue length does an incoming req see
system.mem_ctrls.rdQLenPdf::6                      28                       # What read queue length does an incoming req see
system.mem_ctrls.rdQLenPdf::7                      25                       # What read queue length does an incoming req see
system.mem_ctrls.rdQLenPdf::8                       0                       # What read queue length does an incoming req see
system.mem_ctrls.rdQLenPdf::9                       0                       # What read queue length does an incoming req see
system.mem_ctrls.rdQLenPdf::10                      0                       # What read queue length does an incoming req see
system.mem_ctrls.rdQLenPdf::11                      0                       # What read queue length does an incoming req see
system.mem_ctrls.rdQLenPdf::12                      0                       # What read queue length does an incoming req see
system.mem_ctrls.rdQLenPdf::13                      0                       # What read queue length does an incoming req see
system.mem_ctrls.rdQLenPdf::14                      0                       # What read queue length does an incoming req see
system.mem_ctrls.rdQLenPdf::15                      0                       # What read queue length does an incoming req see
system.mem_ctrls.rdQLenPdf::16                      0                       # What read queue length does an incoming req see
system.mem_ctrls.rdQLenPdf::17                      0                       # What read queue length does an incoming req see
system.mem_ctrls.rdQLenPdf::18                      0                       # What read queue length does an incoming req see
system.mem_ctrls.rdQLenPdf::19                      0                       # What read queue length does an incoming req see
system.mem_ctrls.rdQLenPdf::20                      0                       # What read queue length does an incoming req see
system.mem_ctrls.rdQLenPdf::21                      0                       # What read queue length does an incoming req see
system.mem_ctrls.rdQLenPdf::22                      0                       # What read queue length does an incoming req see
system.mem_ctrls.rdQLenPdf::23                      0                       # What read queue length does an incoming req see
system.mem_ctrls.rdQLenPdf::24                      0                       # What read queue length does an incoming req see
system.mem_ctrls.rdQLenPdf::25                      0                       # What read queue length does an incoming req see
system.mem_ctrls.rdQLenPdf::26                      0                       # What read queue length does an incoming req see
system.mem_ctrls.rdQLenPdf::27                      0                       # What read queue length does an incoming req see
system.mem_ctrls.rdQLenPdf::28                      0                       # What read queue length does an incoming req see
system.mem_ctrls.rdQLenPdf::29                      0                       # What read queue length does an incoming req see
system.mem_ctrls.rdQLenPdf::30                      0                       # What read queue length does an incoming req see
system.mem_ctrls.rdQLenPdf::31                      0                       # What read queue length does an incoming req see
system.mem_ctrls.wrQLenPdf::0                       0                       # What write queue length does an incoming req see
system.mem_ctrls.wrQLenPdf::1                       0                       # What write queue length does an incoming req see
system.mem_ctrls.wrQLenPdf::2                       0                       # What write queue length does an incoming req see
system.mem_ctrls.wrQLenPdf::3                       0                       # What write queue length does an incoming req see
system.mem_ctrls.wrQLenPdf::4                       0                       # What write queue length does an incoming req see
system.mem_ctrls.wrQLenPdf::5                       0                       # What write queue length does an incoming req see
system.mem_ctrls.wrQLenPdf::6                       0                       # What write queue length does an incoming req see
system.mem_ctrls.wrQLenPdf::7                       0                       # What write queue length does an incoming req see
system.mem_ctrls.wrQLenPdf::8                       0                       # What write queue length does an incoming req see
system.mem_ctrls.wrQLenPdf::9                       0                       # What write queue length does an incoming req see
system.mem_ctrls.wrQLenPdf::10                      0                       # What write queue length does an incoming req see
system.mem_ctrls.wrQLenPdf::11                      0                       # What write queue length does an incoming req see
system.mem_ctrls.wrQLenPdf::12                      0                       # What write queue length does an incoming req see
system.mem_ctrls.wrQLenPdf::13                      0                       # What write queue length does an incoming req see
system.mem_ctrls.wrQLenPdf::14                      0                       # What write queue length does an incoming req see
system.mem_ctrls.wrQLenPdf::15                 222017                       # What write queue length does an incoming req see
system.mem_ctrls.wrQLenPdf::16                 241168                       # What write queue length does an incoming req see
system.mem_ctrls.wrQLenPdf::17                2034264                       # What write queue length does an incoming req see
system.mem_ctrls.wrQLenPdf::18                2554942                       # What write queue length does an incoming req see
system.mem_ctrls.wrQLenPdf::19                2648384                       # What write queue length does an incoming req see
system.mem_ctrls.wrQLenPdf::20                2678314                       # What write queue length does an incoming req see
system.mem_ctrls.wrQLenPdf::21                2680676                       # What write queue length does an incoming req see
system.mem_ctrls.wrQLenPdf::22                2685067                       # What write queue length does an incoming req see
system.mem_ctrls.wrQLenPdf::23                2685656                       # What write queue length does an incoming req see
system.mem_ctrls.wrQLenPdf::24                2673676                       # What write queue length does an incoming req see
system.mem_ctrls.wrQLenPdf::25                2659083                       # What write queue length does an incoming req see
system.mem_ctrls.wrQLenPdf::26                2651035                       # What write queue length does an incoming req see
system.mem_ctrls.wrQLenPdf::27                2644466                       # What write queue length does an incoming req see
system.mem_ctrls.wrQLenPdf::28                2641032                       # What write queue length does an incoming req see
system.mem_ctrls.wrQLenPdf::29                2639038                       # What write queue length does an incoming req see
system.mem_ctrls.wrQLenPdf::30                2638000                       # What write queue length does an incoming req see
system.mem_ctrls.wrQLenPdf::31                2637213                       # What write queue length does an incoming req see
system.mem_ctrls.wrQLenPdf::32                2636921                       # What write queue length does an incoming req see
system.mem_ctrls.wrQLenPdf::33                 593275                       # What write queue length does an incoming req see
system.mem_ctrls.wrQLenPdf::34                   6007                       # What write queue length does an incoming req see
system.mem_ctrls.wrQLenPdf::35                   2433                       # What write queue length does an incoming req see
system.mem_ctrls.wrQLenPdf::36                   1269                       # What write queue length does an incoming req see
system.mem_ctrls.wrQLenPdf::37                    563                       # What write queue length does an incoming req see
system.mem_ctrls.wrQLenPdf::38                    338                       # What write queue length does an incoming req see
system.mem_ctrls.wrQLenPdf::39                    164                       # What write queue length does an incoming req see
system.mem_ctrls.wrQLenPdf::40                    110                       # What write queue length does an incoming req see
system.mem_ctrls.wrQLenPdf::41                     53                       # What write queue length does an incoming req see
system.mem_ctrls.wrQLenPdf::42                     38                       # What write queue length does an incoming req see
system.mem_ctrls.wrQLenPdf::43                     15                       # What write queue length does an incoming req see
system.mem_ctrls.wrQLenPdf::44                     12                       # What write queue length does an incoming req see
system.mem_ctrls.wrQLenPdf::45                      5                       # What write queue length does an incoming req see
system.mem_ctrls.wrQLenPdf::46                      4                       # What write queue length does an incoming req see
system.mem_ctrls.wrQLenPdf::47                      5                       # What write queue length does an incoming req see
system.mem_ctrls.wrQLenPdf::48                      6                       # What write queue length does an incoming req see
system.mem_ctrls.wrQLenPdf::49                      6                       # What write queue length does an incoming req see
system.mem_ctrls.wrQLenPdf::50                      4                       # What write queue length does an incoming req see
system.mem_ctrls.wrQLenPdf::51                      4                       # What write queue length does an incoming req see
system.mem_ctrls.wrQLenPdf::52                      4                       # What write queue length does an incoming req see
system.mem_ctrls.wrQLenPdf::53                      2                       # What write queue length does an incoming req see
system.mem_ctrls.wrQLenPdf::54                      2                       # What write queue length does an incoming req see
system.mem_ctrls.wrQLenPdf::55                      2                       # What write queue length does an incoming req see
system.mem_ctrls.wrQLenPdf::56                      0                       # What write queue length does an incoming req see
system.mem_ctrls.wrQLenPdf::57                      0                       # What write queue length does an incoming req see
system.mem_ctrls.wrQLenPdf::58                      0                       # What write queue length does an incoming req see
system.mem_ctrls.wrQLenPdf::59                      0                       # What write queue length does an incoming req see
system.mem_ctrls.wrQLenPdf::60                      0                       # What write queue length does an incoming req see
system.mem_ctrls.wrQLenPdf::61                      0                       # What write queue length does an incoming req see
system.mem_ctrls.wrQLenPdf::62                      0                       # What write queue length does an incoming req see
system.mem_ctrls.wrQLenPdf::63                      0                       # What write queue length does an incoming req see
system.mem_ctrls.bytesPerActivate::samples     21340707                       # Bytes accessed per row activation
system.mem_ctrls.bytesPerActivate::mean    242.468791                       # Bytes accessed per row activation
system.mem_ctrls.bytesPerActivate::gmean   194.218421                       # Bytes accessed per row activation
system.mem_ctrls.bytesPerActivate::stdev   193.153289                       # Bytes accessed per row activation
system.mem_ctrls.bytesPerActivate::0-127       865527      4.06%      4.06% # Bytes accessed per row activation
system.mem_ctrls.bytesPerActivate::128-255     11650774     54.59%     58.65% # Bytes accessed per row activation
system.mem_ctrls.bytesPerActivate::256-383      4404029     20.64%     79.29% # Bytes accessed per row activation
system.mem_ctrls.bytesPerActivate::384-511      1899812      8.90%     88.19% # Bytes accessed per row activation
system.mem_ctrls.bytesPerActivate::512-639      1023047      4.79%     92.98% # Bytes accessed per row activation
system.mem_ctrls.bytesPerActivate::640-767       574213      2.69%     95.67% # Bytes accessed per row activation
system.mem_ctrls.bytesPerActivate::768-895       354995      1.66%     97.34% # Bytes accessed per row activation
system.mem_ctrls.bytesPerActivate::896-1023       229173      1.07%     98.41% # Bytes accessed per row activation
system.mem_ctrls.bytesPerActivate::1024-1151       339137      1.59%    100.00% # Bytes accessed per row activation
system.mem_ctrls.bytesPerActivate::total     21340707                       # Bytes accessed per row activation
system.mem_ctrls.rdPerTurnAround::samples      2636552                       # Reads before turning the bus around for writes
system.mem_ctrls.rdPerTurnAround::mean      14.411092                       # Reads before turning the bus around for writes
system.mem_ctrls.rdPerTurnAround::stdev      3.195415                       # Reads before turning the bus around for writes
system.mem_ctrls.rdPerTurnAround::0-7           41900      1.59%      1.59% # Reads before turning the bus around for writes
system.mem_ctrls.rdPerTurnAround::8-15        1248431     47.35%     48.94% # Reads before turning the bus around for writes
system.mem_ctrls.rdPerTurnAround::16-23       1332598     50.54%     99.48% # Reads before turning the bus around for writes
system.mem_ctrls.rdPerTurnAround::24-31          5473      0.21%     99.69% # Reads before turning the bus around for writes
system.mem_ctrls.rdPerTurnAround::32-39          3816      0.14%     99.84% # Reads before turning the bus around for writes
system.mem_ctrls.rdPerTurnAround::40-47          1919      0.07%     99.91% # Reads before turning the bus around for writes
system.mem_ctrls.rdPerTurnAround::48-55           944      0.04%     99.94% # Reads before turning the bus around for writes
system.mem_ctrls.rdPerTurnAround::56-63           536      0.02%     99.96% # Reads before turning the bus around for writes
system.mem_ctrls.rdPerTurnAround::64-71           320      0.01%     99.98% # Reads before turning the bus around for writes
system.mem_ctrls.rdPerTurnAround::72-79           211      0.01%     99.98% # Reads before turning the bus around for writes
system.mem_ctrls.rdPerTurnAround::80-87           140      0.01%     99.99% # Reads before turning the bus around for writes
system.mem_ctrls.rdPerTurnAround::88-95            68      0.00%     99.99% # Reads before turning the bus around for writes
system.mem_ctrls.rdPerTurnAround::96-103           68      0.00%    100.00% # Reads before turning the bus around for writes
system.mem_ctrls.rdPerTurnAround::104-111           37      0.00%    100.00% # Reads before turning the bus around for writes
system.mem_ctrls.rdPerTurnAround::112-119           34      0.00%    100.00% # Reads before turning the bus around for writes
system.mem_ctrls.rdPerTurnAround::120-127           14      0.00%    100.00% # Reads before turning the bus around for writes
system.mem_ctrls.rdPerTurnAround::128-135           12      0.00%    100.00% # Reads before turning the bus around for writes
system.mem_ctrls.rdPerTurnAround::136-143            5      0.00%    100.00% # Reads before turning the bus around for writes
system.mem_ctrls.rdPerTurnAround::144-151            1      0.00%    100.00% # Reads before turning the bus around for writes
system.mem_ctrls.rdPerTurnAround::152-159           12      0.00%    100.00% # Reads before turning the bus around for writes
system.mem_ctrls.rdPerTurnAround::160-167            5      0.00%    100.00% # Reads before turning the bus around for writes
system.mem_ctrls.rdPerTurnAround::168-175            5      0.00%    100.00% # Reads before turning the bus around for writes
system.mem_ctrls.rdPerTurnAround::176-183            2      0.00%    100.00% # Reads before turning the bus around for writes
system.mem_ctrls.rdPerTurnAround::192-199            1      0.00%    100.00% # Reads before turning the bus around for writes
system.mem_ctrls.rdPerTurnAround::total       2636552                       # Reads before turning the bus around for writes
system.mem_ctrls.wrPerTurnAround::samples      2636552                       # Writes before turning the bus around for reads
system.mem_ctrls.wrPerTurnAround::mean      16.254285                       # Writes before turning the bus around for reads
system.mem_ctrls.wrPerTurnAround::gmean     16.234499                       # Writes before turning the bus around for reads
system.mem_ctrls.wrPerTurnAround::stdev      0.854256                       # Writes before turning the bus around for reads
system.mem_ctrls.wrPerTurnAround::16-17       2392462     90.74%     90.74% # Writes before turning the bus around for reads
system.mem_ctrls.wrPerTurnAround::18-19        199489      7.57%     98.31% # Writes before turning the bus around for reads
system.mem_ctrls.wrPerTurnAround::20-21         37313      1.42%     99.72% # Writes before turning the bus around for reads
system.mem_ctrls.wrPerTurnAround::22-23          6087      0.23%     99.95% # Writes before turning the bus around for reads
system.mem_ctrls.wrPerTurnAround::24-25           887      0.03%     99.99% # Writes before turning the bus around for reads
system.mem_ctrls.wrPerTurnAround::26-27           195      0.01%    100.00% # Writes before turning the bus around for reads
system.mem_ctrls.wrPerTurnAround::28-29            74      0.00%    100.00% # Writes before turning the bus around for reads
system.mem_ctrls.wrPerTurnAround::30-31            17      0.00%    100.00% # Writes before turning the bus around for reads
system.mem_ctrls.wrPerTurnAround::32-33             9      0.00%    100.00% # Writes before turning the bus around for reads
system.mem_ctrls.wrPerTurnAround::34-35             5      0.00%    100.00% # Writes before turning the bus around for reads
system.mem_ctrls.wrPerTurnAround::36-37             3      0.00%    100.00% # Writes before turning the bus around for reads
system.mem_ctrls.wrPerTurnAround::38-39             2      0.00%    100.00% # Writes before turning the bus around for reads
system.mem_ctrls.wrPerTurnAround::40-41             1      0.00%    100.00% # Writes before turning the bus around for reads
system.mem_ctrls.wrPerTurnAround::46-47             5      0.00%    100.00% # Writes before turning the bus around for reads
system.mem_ctrls.wrPerTurnAround::56-57             1      0.00%    100.00% # Writes before turning the bus around for reads
system.mem_ctrls.wrPerTurnAround::58-59             1      0.00%    100.00% # Writes before turning the bus around for reads
system.mem_ctrls.wrPerTurnAround::66-67             1      0.00%    100.00% # Writes before turning the bus around for reads
system.mem_ctrls.wrPerTurnAround::total       2636552                       # Writes before turning the bus around for reads
system.mem_ctrls.totQLat                 1115395049766                       # Total ticks spent queuing
system.mem_ctrls.totMemAccLat            1827812531016                       # Total ticks spent from burst creation until serviced by the DRAM
system.mem_ctrls.totBusLat               189977995000                       # Total ticks spent in databus transfers
system.mem_ctrls.avgQLat                     29355.90                       # Average queueing delay per DRAM burst
system.mem_ctrls.avgBusLat                    5000.00                       # Average bus latency per DRAM burst
system.mem_ctrls.avgMemAccLat                48105.90                       # Average memory access latency per DRAM burst
system.mem_ctrls.avgRdBW                       538.47                       # Average DRAM read bandwidth in MiByte/s
system.mem_ctrls.avgWrBW                       607.34                       # Average achieved write bandwidth in MiByte/s
system.mem_ctrls.avgRdBWSys                    642.87                       # Average system read bandwidth in MiByte/s
system.mem_ctrls.avgWrBWSys                    641.50                       # Average system write bandwidth in MiByte/s
system.mem_ctrls.peakBW                      12800.00                       # Theoretical peak bandwidth in MiByte/s
system.mem_ctrls.busUtil                         8.95                       # Data bus utilization in percentage
system.mem_ctrls.busUtilRead                     4.21                       # Data bus utilization in percentage for reads
system.mem_ctrls.busUtilWrite                    4.74                       # Data bus utilization in percentage for writes
system.mem_ctrls.avgRdQLen                       1.99                       # Average read queue length when enqueuing
system.mem_ctrls.avgWrQLen                      26.55                       # Average write queue length when enqueuing
system.mem_ctrls.readRowHits                 28131144                       # Number of row buffer hits during reads
system.mem_ctrls.writeRowHits                31379017                       # Number of row buffer hits during writes
system.mem_ctrls.readRowHitRate                 74.04                       # Row buffer hit rate for reads
system.mem_ctrls.writeRowHitRate                73.22                       # Row buffer hit rate for writes
system.mem_ctrls.avgGap                      99659.93                       # Average gap between requests
system.mem_ctrls.pageHitRate                    73.60                       # Row buffer hit rate, read and write combined
system.mem_ctrls_0.actEnergy             101714492880                       # Energy for activate commands per rank (pJ)
system.mem_ctrls_0.preEnergy              55498979250                       # Energy for precharge commands per rank (pJ)
system.mem_ctrls_0.readEnergy            185440171800                       # Energy for read commands per rank (pJ)
system.mem_ctrls_0.writeEnergy           173559898800                       # Energy for write commands per rank (pJ)
system.mem_ctrls_0.refreshEnergy         295308078000                       # Energy for refresh commands per rank (pJ)
system.mem_ctrls_0.actBackEnergy         2829402434115                       # Energy for active background per rank (pJ)
system.mem_ctrls_0.preBackEnergy         230836627500                       # Energy for precharge background per rank (pJ)
system.mem_ctrls_0.totalEnergy           3871760682345                       # Total energy per rank (pJ)
system.mem_ctrls_0.averagePower            856.341533                       # Core power per rank (mW)
system.mem_ctrls_0.memoryStateTime::IDLE 366496195753                       # Time in different power states
system.mem_ctrls_0.memoryStateTime::REF  150798180000                       # Time in different power states
system.mem_ctrls_0.memoryStateTime::PRE_PDN            0                       # Time in different power states
system.mem_ctrls_0.memoryStateTime::ACT  3998675944247                       # Time in different power states
system.mem_ctrls_0.memoryStateTime::ACT_PDN            0                       # Time in different power states
system.mem_ctrls_1.actEnergy              59909265360                       # Energy for activate commands per rank (pJ)
system.mem_ctrls_1.preEnergy              32688587250                       # Energy for precharge commands per rank (pJ)
system.mem_ctrls_1.readEnergy            111438139800                       # Energy for read commands per rank (pJ)
system.mem_ctrls_1.writeEnergy           104575464720                       # Energy for write commands per rank (pJ)
system.mem_ctrls_1.refreshEnergy         295308078000                       # Energy for refresh commands per rank (pJ)
system.mem_ctrls_1.actBackEnergy         2664312405300                       # Energy for active background per rank (pJ)
system.mem_ctrls_1.preBackEnergy         375652442250                       # Energy for precharge background per rank (pJ)
system.mem_ctrls_1.totalEnergy           3643884382680                       # Total energy per rank (pJ)
system.mem_ctrls_1.averagePower            805.940706                       # Core power per rank (mW)
system.mem_ctrls_1.memoryStateTime::IDLE 605045109758                       # Time in different power states
system.mem_ctrls_1.memoryStateTime::REF  150798180000                       # Time in different power states
system.mem_ctrls_1.memoryStateTime::PRE_PDN            0                       # Time in different power states
system.mem_ctrls_1.memoryStateTime::ACT  3760127275242                       # Time in different power states
system.mem_ctrls_1.memoryStateTime::ACT_PDN            0                       # Time in different power states
system.cpu_voltage_domain.voltage                   1                       # Voltage in Volts
system.cpu_clk_domain.clock                       500                       # Clock period in ticks
system.cpu0.apic_clk_domain.clock                8000                       # Clock period in ticks
system.cpu0.numCycles                      9028754137                       # number of cpu cycles simulated
system.cpu0.numWorkItemsStarted                     0                       # number of work items this cpu started
system.cpu0.numWorkItemsCompleted                   0                       # number of work items this cpu completed
system.cpu0.kern.inst.arm                           0                       # number of arm instructions executed
system.cpu0.kern.inst.quiesce                       0                       # number of quiesce instructions executed
system.cpu0.committedInsts                    5104718                       # Number of instructions committed
system.cpu0.committedOps                     10748197                       # Number of ops (including micro ops) committed
system.cpu0.num_int_alu_accesses             10542441                       # Number of integer alu accesses
system.cpu0.num_fp_alu_accesses                  1778                       # Number of float alu accesses
system.cpu0.num_func_calls                     288954                       # number of times a function call or return occured
system.cpu0.num_conditional_control_insts       827261                       # number of instructions that are conditional controls
system.cpu0.num_int_insts                    10542441                       # number of integer instructions
system.cpu0.num_fp_insts                         1778                       # number of float instructions
system.cpu0.num_int_register_reads           21059511                       # number of times the integer registers were read
system.cpu0.num_int_register_writes           8671379                       # number of times the integer registers were written
system.cpu0.num_fp_register_reads                2988                       # number of times the floating registers were read
system.cpu0.num_fp_register_writes               1416                       # number of times the floating registers were written
system.cpu0.num_cc_register_reads             6423431                       # number of times the CC registers were read
system.cpu0.num_cc_register_writes            3416564                       # number of times the CC registers were written
system.cpu0.num_mem_refs                      2390178                       # number of memory refs
system.cpu0.num_load_insts                    1484431                       # Number of load instructions
system.cpu0.num_store_insts                    905747                       # Number of store instructions
system.cpu0.num_idle_cycles              8991193259.333832                       # Number of idle cycles
system.cpu0.num_busy_cycles              37560877.666169                       # Number of busy cycles
system.cpu0.not_idle_fraction                0.004160                       # Percentage of non-idle cycles
system.cpu0.idle_fraction                    0.995840                       # Percentage of idle cycles
system.cpu0.Branches                          1202783                       # Number of branches fetched
system.cpu0.op_class::No_OpClass               152985      1.42%      1.42% # Class of executed instruction
system.cpu0.op_class::IntAlu                  8136525     75.70%     77.12% # Class of executed instruction
system.cpu0.op_class::IntMult                   17110      0.16%     77.28% # Class of executed instruction
system.cpu0.op_class::IntDiv                    50146      0.47%     77.75% # Class of executed instruction
system.cpu0.op_class::FloatAdd                   1344      0.01%     77.76% # Class of executed instruction
system.cpu0.op_class::FloatCmp                      0      0.00%     77.76% # Class of executed instruction
system.cpu0.op_class::FloatCvt                      0      0.00%     77.76% # Class of executed instruction
system.cpu0.op_class::FloatMult                     0      0.00%     77.76% # Class of executed instruction
system.cpu0.op_class::FloatDiv                      0      0.00%     77.76% # Class of executed instruction
system.cpu0.op_class::FloatSqrt                     0      0.00%     77.76% # Class of executed instruction
system.cpu0.op_class::SimdAdd                       0      0.00%     77.76% # Class of executed instruction
system.cpu0.op_class::SimdAddAcc                    0      0.00%     77.76% # Class of executed instruction
system.cpu0.op_class::SimdAlu                       0      0.00%     77.76% # Class of executed instruction
system.cpu0.op_class::SimdCmp                       0      0.00%     77.76% # Class of executed instruction
system.cpu0.op_class::SimdCvt                       0      0.00%     77.76% # Class of executed instruction
system.cpu0.op_class::SimdMisc                      0      0.00%     77.76% # Class of executed instruction
system.cpu0.op_class::SimdMult                      0      0.00%     77.76% # Class of executed instruction
system.cpu0.op_class::SimdMultAcc                   0      0.00%     77.76% # Class of executed instruction
system.cpu0.op_class::SimdShift                     0      0.00%     77.76% # Class of executed instruction
system.cpu0.op_class::SimdShiftAcc                  0      0.00%     77.76% # Class of executed instruction
system.cpu0.op_class::SimdSqrt                      0      0.00%     77.76% # Class of executed instruction
system.cpu0.op_class::SimdFloatAdd                  0      0.00%     77.76% # Class of executed instruction
system.cpu0.op_class::SimdFloatAlu                  0      0.00%     77.76% # Class of executed instruction
system.cpu0.op_class::SimdFloatCmp                  0      0.00%     77.76% # Class of executed instruction
system.cpu0.op_class::SimdFloatCvt                  0      0.00%     77.76% # Class of executed instruction
system.cpu0.op_class::SimdFloatDiv                  0      0.00%     77.76% # Class of executed instruction
system.cpu0.op_class::SimdFloatMisc                 0      0.00%     77.76% # Class of executed instruction
system.cpu0.op_class::SimdFloatMult                 0      0.00%     77.76% # Class of executed instruction
system.cpu0.op_class::SimdFloatMultAcc              0      0.00%     77.76% # Class of executed instruction
system.cpu0.op_class::SimdFloatSqrt                 0      0.00%     77.76% # Class of executed instruction
system.cpu0.op_class::MemRead                 1484431     13.81%     91.57% # Class of executed instruction
system.cpu0.op_class::MemWrite                 905747      8.43%    100.00% # Class of executed instruction
system.cpu0.op_class::IprAccess                     0      0.00%    100.00% # Class of executed instruction
system.cpu0.op_class::InstPrefetch                  0      0.00%    100.00% # Class of executed instruction
system.cpu0.op_class::total                  10748288                       # Class of executed instruction
system.cpu1.apic_clk_domain.clock                8000                       # Clock period in ticks
system.cpu1.numCycles                      9036246880                       # number of cpu cycles simulated
system.cpu1.numWorkItemsStarted                     0                       # number of work items this cpu started
system.cpu1.numWorkItemsCompleted                   0                       # number of work items this cpu completed
system.cpu1.kern.inst.arm                           0                       # number of arm instructions executed
system.cpu1.kern.inst.quiesce                       0                       # number of quiesce instructions executed
system.cpu1.committedInsts                    5475047                       # Number of instructions committed
system.cpu1.committedOps                     11362461                       # Number of ops (including micro ops) committed
system.cpu1.num_int_alu_accesses             11145991                       # Number of integer alu accesses
system.cpu1.num_fp_alu_accesses                    50                       # Number of float alu accesses
system.cpu1.num_func_calls                     280038                       # number of times a function call or return occured
system.cpu1.num_conditional_control_insts       937813                       # number of instructions that are conditional controls
system.cpu1.num_int_insts                    11145991                       # number of integer instructions
system.cpu1.num_fp_insts                           50                       # number of float instructions
system.cpu1.num_int_register_reads           22034263                       # number of times the integer registers were read
system.cpu1.num_int_register_writes           9186300                       # number of times the integer registers were written
system.cpu1.num_fp_register_reads                  78                       # number of times the floating registers were read
system.cpu1.num_fp_register_writes                 38                       # number of times the floating registers were written
system.cpu1.num_cc_register_reads             7062776                       # number of times the CC registers were read
system.cpu1.num_cc_register_writes            3692042                       # number of times the CC registers were written
system.cpu1.num_mem_refs                      2422792                       # number of memory refs
system.cpu1.num_load_insts                    1542071                       # Number of load instructions
system.cpu1.num_store_insts                    880721                       # Number of store instructions
system.cpu1.num_idle_cycles              8997311650.299536                       # Number of idle cycles
system.cpu1.num_busy_cycles              38935229.700464                       # Number of busy cycles
system.cpu1.not_idle_fraction                0.004309                       # Percentage of non-idle cycles
system.cpu1.idle_fraction                    0.995691                       # Percentage of idle cycles
system.cpu1.Branches                          1308208                       # Number of branches fetched
system.cpu1.op_class::No_OpClass               151336      1.33%      1.33% # Class of executed instruction
system.cpu1.op_class::IntAlu                  8721229     76.75%     78.09% # Class of executed instruction
system.cpu1.op_class::IntMult                   21449      0.19%     78.28% # Class of executed instruction
system.cpu1.op_class::IntDiv                    45646      0.40%     78.68% # Class of executed instruction
system.cpu1.op_class::FloatAdd                     32      0.00%     78.68% # Class of executed instruction
system.cpu1.op_class::FloatCmp                      0      0.00%     78.68% # Class of executed instruction
system.cpu1.op_class::FloatCvt                      0      0.00%     78.68% # Class of executed instruction
system.cpu1.op_class::FloatMult                     0      0.00%     78.68% # Class of executed instruction
system.cpu1.op_class::FloatDiv                      0      0.00%     78.68% # Class of executed instruction
system.cpu1.op_class::FloatSqrt                     0      0.00%     78.68% # Class of executed instruction
system.cpu1.op_class::SimdAdd                       0      0.00%     78.68% # Class of executed instruction
system.cpu1.op_class::SimdAddAcc                    0      0.00%     78.68% # Class of executed instruction
system.cpu1.op_class::SimdAlu                       0      0.00%     78.68% # Class of executed instruction
system.cpu1.op_class::SimdCmp                       0      0.00%     78.68% # Class of executed instruction
system.cpu1.op_class::SimdCvt                       0      0.00%     78.68% # Class of executed instruction
system.cpu1.op_class::SimdMisc                      0      0.00%     78.68% # Class of executed instruction
system.cpu1.op_class::SimdMult                      0      0.00%     78.68% # Class of executed instruction
system.cpu1.op_class::SimdMultAcc                   0      0.00%     78.68% # Class of executed instruction
system.cpu1.op_class::SimdShift                     0      0.00%     78.68% # Class of executed instruction
system.cpu1.op_class::SimdShiftAcc                  0      0.00%     78.68% # Class of executed instruction
system.cpu1.op_class::SimdSqrt                      0      0.00%     78.68% # Class of executed instruction
system.cpu1.op_class::SimdFloatAdd                  0      0.00%     78.68% # Class of executed instruction
system.cpu1.op_class::SimdFloatAlu                  0      0.00%     78.68% # Class of executed instruction
system.cpu1.op_class::SimdFloatCmp                  0      0.00%     78.68% # Class of executed instruction
system.cpu1.op_class::SimdFloatCvt                  0      0.00%     78.68% # Class of executed instruction
system.cpu1.op_class::SimdFloatDiv                  0      0.00%     78.68% # Class of executed instruction
system.cpu1.op_class::SimdFloatMisc                 0      0.00%     78.68% # Class of executed instruction
system.cpu1.op_class::SimdFloatMult                 0      0.00%     78.68% # Class of executed instruction
system.cpu1.op_class::SimdFloatMultAcc              0      0.00%     78.68% # Class of executed instruction
system.cpu1.op_class::SimdFloatSqrt                 0      0.00%     78.68% # Class of executed instruction
system.cpu1.op_class::MemRead                 1542071     13.57%     92.25% # Class of executed instruction
system.cpu1.op_class::MemWrite                 880721      7.75%    100.00% # Class of executed instruction
system.cpu1.op_class::IprAccess                     0      0.00%    100.00% # Class of executed instruction
system.cpu1.op_class::InstPrefetch                  0      0.00%    100.00% # Class of executed instruction
system.cpu1.op_class::total                  11362484                       # Class of executed instruction
system.cpu2.apic_clk_domain.clock                8000                       # Clock period in ticks
system.cpu2.numCycles                      9035115562                       # number of cpu cycles simulated
system.cpu2.numWorkItemsStarted                     0                       # number of work items this cpu started
system.cpu2.numWorkItemsCompleted                   0                       # number of work items this cpu completed
system.cpu2.kern.inst.arm                           0                       # number of arm instructions executed
system.cpu2.kern.inst.quiesce                       0                       # number of quiesce instructions executed
system.cpu2.committedInsts                 1521774764                       # Number of instructions committed
system.cpu2.committedOps                   2546076007                       # Number of ops (including micro ops) committed
system.cpu2.num_int_alu_accesses           1950566507                       # Number of integer alu accesses
system.cpu2.num_fp_alu_accesses             965601779                       # Number of float alu accesses
system.cpu2.num_func_calls                   35486609                       # number of times a function call or return occured
system.cpu2.num_conditional_control_insts    171684370                       # number of instructions that are conditional controls
system.cpu2.num_int_insts                  1950566507                       # number of integer instructions
system.cpu2.num_fp_insts                    965601779                       # number of float instructions
system.cpu2.num_int_register_reads         4131897577                       # number of times the integer registers were read
system.cpu2.num_int_register_writes        1330341000                       # number of times the integer registers were written
system.cpu2.num_fp_register_reads          1529965740                       # number of times the floating registers were read
system.cpu2.num_fp_register_writes          790021462                       # number of times the floating registers were written
system.cpu2.num_cc_register_reads          1447732258                       # number of times the CC registers were read
system.cpu2.num_cc_register_writes          550418544                       # number of times the CC registers were written
system.cpu2.num_mem_refs                    645044328                       # number of memory refs
system.cpu2.num_load_insts                  478537282                       # Number of load instructions
system.cpu2.num_store_insts                 166507046                       # Number of store instructions
system.cpu2.num_idle_cycles              6396806.167888                       # Number of idle cycles
system.cpu2.num_busy_cycles              9028718755.832111                       # Number of busy cycles
system.cpu2.not_idle_fraction                0.999292                       # Percentage of non-idle cycles
system.cpu2.idle_fraction                    0.000708                       # Percentage of idle cycles
system.cpu2.Branches                        231560865                       # Number of branches fetched
system.cpu2.op_class::No_OpClass              3388406      0.13%      0.13% # Class of executed instruction
system.cpu2.op_class::IntAlu               1474134541     57.90%     58.03% # Class of executed instruction
system.cpu2.op_class::IntMult                 4736906      0.19%     58.22% # Class of executed instruction
system.cpu2.op_class::IntDiv                 19610815      0.77%     58.99% # Class of executed instruction
system.cpu2.op_class::FloatAdd              398093031     15.64%     74.62% # Class of executed instruction
system.cpu2.op_class::FloatCmp                      0      0.00%     74.62% # Class of executed instruction
system.cpu2.op_class::FloatCvt                      0      0.00%     74.62% # Class of executed instruction
system.cpu2.op_class::FloatMult                     0      0.00%     74.62% # Class of executed instruction
system.cpu2.op_class::FloatDiv                1068156      0.04%     74.67% # Class of executed instruction
system.cpu2.op_class::FloatSqrt                     0      0.00%     74.67% # Class of executed instruction
system.cpu2.op_class::SimdAdd                       0      0.00%     74.67% # Class of executed instruction
system.cpu2.op_class::SimdAddAcc                    0      0.00%     74.67% # Class of executed instruction
system.cpu2.op_class::SimdAlu                       0      0.00%     74.67% # Class of executed instruction
system.cpu2.op_class::SimdCmp                       0      0.00%     74.67% # Class of executed instruction
system.cpu2.op_class::SimdCvt                       0      0.00%     74.67% # Class of executed instruction
system.cpu2.op_class::SimdMisc                      0      0.00%     74.67% # Class of executed instruction
system.cpu2.op_class::SimdMult                      0      0.00%     74.67% # Class of executed instruction
system.cpu2.op_class::SimdMultAcc                   0      0.00%     74.67% # Class of executed instruction
system.cpu2.op_class::SimdShift                     0      0.00%     74.67% # Class of executed instruction
system.cpu2.op_class::SimdShiftAcc                  0      0.00%     74.67% # Class of executed instruction
system.cpu2.op_class::SimdSqrt                      0      0.00%     74.67% # Class of executed instruction
system.cpu2.op_class::SimdFloatAdd                  0      0.00%     74.67% # Class of executed instruction
system.cpu2.op_class::SimdFloatAlu                  0      0.00%     74.67% # Class of executed instruction
system.cpu2.op_class::SimdFloatCmp                  0      0.00%     74.67% # Class of executed instruction
system.cpu2.op_class::SimdFloatCvt                  0      0.00%     74.67% # Class of executed instruction
system.cpu2.op_class::SimdFloatDiv                  0      0.00%     74.67% # Class of executed instruction
system.cpu2.op_class::SimdFloatMisc                 0      0.00%     74.67% # Class of executed instruction
system.cpu2.op_class::SimdFloatMult                 0      0.00%     74.67% # Class of executed instruction
system.cpu2.op_class::SimdFloatMultAcc              0      0.00%     74.67% # Class of executed instruction
system.cpu2.op_class::SimdFloatSqrt                 0      0.00%     74.67% # Class of executed instruction
system.cpu2.op_class::MemRead               478537282     18.80%     93.46% # Class of executed instruction
system.cpu2.op_class::MemWrite              166507046      6.54%    100.00% # Class of executed instruction
system.cpu2.op_class::IprAccess                     0      0.00%    100.00% # Class of executed instruction
system.cpu2.op_class::InstPrefetch                  0      0.00%    100.00% # Class of executed instruction
system.cpu2.op_class::total                2546076183                       # Class of executed instruction
system.cpu3.apic_clk_domain.clock                8000                       # Clock period in ticks
system.cpu3.numCycles                      9031713585                       # number of cpu cycles simulated
system.cpu3.numWorkItemsStarted                     0                       # number of work items this cpu started
system.cpu3.numWorkItemsCompleted                   0                       # number of work items this cpu completed
system.cpu3.kern.inst.arm                           0                       # number of arm instructions executed
system.cpu3.kern.inst.quiesce                       0                       # number of quiesce instructions executed
system.cpu3.committedInsts                    3745734                       # Number of instructions committed
system.cpu3.committedOps                      8004943                       # Number of ops (including micro ops) committed
system.cpu3.num_int_alu_accesses              7839071                       # Number of integer alu accesses
system.cpu3.num_fp_alu_accesses                     0                       # Number of float alu accesses
system.cpu3.num_func_calls                     212568                       # number of times a function call or return occured
system.cpu3.num_conditional_control_insts       622242                       # number of instructions that are conditional controls
system.cpu3.num_int_insts                     7839071                       # number of integer instructions
system.cpu3.num_fp_insts                            0                       # number of float instructions
system.cpu3.num_int_register_reads           15661715                       # number of times the integer registers were read
system.cpu3.num_int_register_writes           6484929                       # number of times the integer registers were written
system.cpu3.num_fp_register_reads                   0                       # number of times the floating registers were read
system.cpu3.num_fp_register_writes                  0                       # number of times the floating registers were written
system.cpu3.num_cc_register_reads             4820333                       # number of times the CC registers were read
system.cpu3.num_cc_register_writes            2464470                       # number of times the CC registers were written
system.cpu3.num_mem_refs                      1800082                       # number of memory refs
system.cpu3.num_load_insts                    1124230                       # Number of load instructions
system.cpu3.num_store_insts                    675852                       # Number of store instructions
system.cpu3.num_idle_cycles              8994125364.994059                       # Number of idle cycles
system.cpu3.num_busy_cycles              37588220.005941                       # Number of busy cycles
system.cpu3.not_idle_fraction                0.004162                       # Percentage of non-idle cycles
system.cpu3.idle_fraction                    0.995838                       # Percentage of idle cycles
system.cpu3.Branches                           901961                       # Number of branches fetched
system.cpu3.op_class::No_OpClass               137477      1.72%      1.72% # Class of executed instruction
system.cpu3.op_class::IntAlu                  6003450     75.00%     76.71% # Class of executed instruction
system.cpu3.op_class::IntMult                   15035      0.19%     76.90% # Class of executed instruction
system.cpu3.op_class::IntDiv                    48902      0.61%     77.51% # Class of executed instruction
system.cpu3.op_class::FloatAdd                      0      0.00%     77.51% # Class of executed instruction
system.cpu3.op_class::FloatCmp                      0      0.00%     77.51% # Class of executed instruction
system.cpu3.op_class::FloatCvt                      0      0.00%     77.51% # Class of executed instruction
system.cpu3.op_class::FloatMult                     0      0.00%     77.51% # Class of executed instruction
system.cpu3.op_class::FloatDiv                      0      0.00%     77.51% # Class of executed instruction
system.cpu3.op_class::FloatSqrt                     0      0.00%     77.51% # Class of executed instruction
system.cpu3.op_class::SimdAdd                       0      0.00%     77.51% # Class of executed instruction
system.cpu3.op_class::SimdAddAcc                    0      0.00%     77.51% # Class of executed instruction
system.cpu3.op_class::SimdAlu                       0      0.00%     77.51% # Class of executed instruction
system.cpu3.op_class::SimdCmp                       0      0.00%     77.51% # Class of executed instruction
system.cpu3.op_class::SimdCvt                       0      0.00%     77.51% # Class of executed instruction
system.cpu3.op_class::SimdMisc                      0      0.00%     77.51% # Class of executed instruction
system.cpu3.op_class::SimdMult                      0      0.00%     77.51% # Class of executed instruction
system.cpu3.op_class::SimdMultAcc                   0      0.00%     77.51% # Class of executed instruction
system.cpu3.op_class::SimdShift                     0      0.00%     77.51% # Class of executed instruction
system.cpu3.op_class::SimdShiftAcc                  0      0.00%     77.51% # Class of executed instruction
system.cpu3.op_class::SimdSqrt                      0      0.00%     77.51% # Class of executed instruction
system.cpu3.op_class::SimdFloatAdd                  0      0.00%     77.51% # Class of executed instruction
system.cpu3.op_class::SimdFloatAlu                  0      0.00%     77.51% # Class of executed instruction
system.cpu3.op_class::SimdFloatCmp                  0      0.00%     77.51% # Class of executed instruction
system.cpu3.op_class::SimdFloatCvt                  0      0.00%     77.51% # Class of executed instruction
system.cpu3.op_class::SimdFloatDiv                  0      0.00%     77.51% # Class of executed instruction
system.cpu3.op_class::SimdFloatMisc                 0      0.00%     77.51% # Class of executed instruction
system.cpu3.op_class::SimdFloatMult                 0      0.00%     77.51% # Class of executed instruction
system.cpu3.op_class::SimdFloatMultAcc              0      0.00%     77.51% # Class of executed instruction
system.cpu3.op_class::SimdFloatSqrt                 0      0.00%     77.51% # Class of executed instruction
system.cpu3.op_class::MemRead                 1124230     14.04%     91.56% # Class of executed instruction
system.cpu3.op_class::MemWrite                 675852      8.44%    100.00% # Class of executed instruction
system.cpu3.op_class::IprAccess                     0      0.00%    100.00% # Class of executed instruction
system.cpu3.op_class::InstPrefetch                  0      0.00%    100.00% # Class of executed instruction
system.cpu3.op_class::total                   8004946                       # Class of executed instruction
system.iobus.trans_dist::ReadReq                  873                       # Transaction distribution
system.iobus.trans_dist::ReadResp                 873                       # Transaction distribution
system.iobus.trans_dist::WriteReq                6162                       # Transaction distribution
system.iobus.trans_dist::WriteResp               6162                       # Transaction distribution
system.iobus.trans_dist::MessageReq               112                       # Transaction distribution
system.iobus.trans_dist::MessageResp              112                       # Transaction distribution
system.iobus.pkt_count_system.pc.south_bridge.io_apic.int_master::system.ruby.l1_cntrl0.sequencer.pio-slave-port           50                       # Packet count per connected master and slave (bytes)
system.iobus.pkt_count_system.pc.south_bridge.io_apic.int_master::system.ruby.l1_cntrl1.sequencer.pio-slave-port           52                       # Packet count per connected master and slave (bytes)
system.iobus.pkt_count_system.pc.south_bridge.io_apic.int_master::system.ruby.l1_cntrl2.sequencer.pio-slave-port           52                       # Packet count per connected master and slave (bytes)
system.iobus.pkt_count_system.pc.south_bridge.io_apic.int_master::system.ruby.l1_cntrl3.sequencer.pio-slave-port           52                       # Packet count per connected master and slave (bytes)
system.iobus.pkt_count_system.pc.south_bridge.io_apic.int_master::total          206                       # Packet count per connected master and slave (bytes)
system.iobus.pkt_count_system.ruby.l1_cntrl0.sequencer.mem-master-port::system.pc.south_bridge.ide.pio         1070                       # Packet count per connected master and slave (bytes)
system.iobus.pkt_count_system.ruby.l1_cntrl0.sequencer.mem-master-port::system.pc.south_bridge.io_apic.pio            6                       # Packet count per connected master and slave (bytes)
system.iobus.pkt_count_system.ruby.l1_cntrl0.sequencer.mem-master-port::system.pc.com_1.pio          174                       # Packet count per connected master and slave (bytes)
system.iobus.pkt_count_system.ruby.l1_cntrl0.sequencer.mem-master-port::system.ruby.l1_cntrl0.sequencer.pio-slave-port         2328                       # Packet count per connected master and slave (bytes)
system.iobus.pkt_count_system.ruby.l1_cntrl0.sequencer.mem-master-port::system.ruby.l1_cntrl1.sequencer.pio-slave-port            2                       # Packet count per connected master and slave (bytes)
system.iobus.pkt_count_system.ruby.l1_cntrl0.sequencer.mem-master-port::system.ruby.l1_cntrl2.sequencer.pio-slave-port            2                       # Packet count per connected master and slave (bytes)
system.iobus.pkt_count_system.ruby.l1_cntrl0.sequencer.mem-master-port::system.ruby.l1_cntrl3.sequencer.pio-slave-port            2                       # Packet count per connected master and slave (bytes)
system.iobus.pkt_count_system.ruby.l1_cntrl0.sequencer.mem-master-port::total         3584                       # Packet count per connected master and slave (bytes)
system.iobus.pkt_count_system.ruby.l1_cntrl1.sequencer.mem-master-port::system.pc.south_bridge.ide.pio         1490                       # Packet count per connected master and slave (bytes)
system.iobus.pkt_count_system.ruby.l1_cntrl1.sequencer.mem-master-port::system.pc.south_bridge.io_apic.pio            8                       # Packet count per connected master and slave (bytes)
system.iobus.pkt_count_system.ruby.l1_cntrl1.sequencer.mem-master-port::system.pc.com_1.pio            2                       # Packet count per connected master and slave (bytes)
system.iobus.pkt_count_system.ruby.l1_cntrl1.sequencer.mem-master-port::system.ruby.l1_cntrl1.sequencer.pio-slave-port         2324                       # Packet count per connected master and slave (bytes)
system.iobus.pkt_count_system.ruby.l1_cntrl1.sequencer.mem-master-port::system.ruby.l1_cntrl2.sequencer.pio-slave-port            2                       # Packet count per connected master and slave (bytes)
system.iobus.pkt_count_system.ruby.l1_cntrl1.sequencer.mem-master-port::total         3826                       # Packet count per connected master and slave (bytes)
system.iobus.pkt_count_system.ruby.l1_cntrl2.sequencer.mem-master-port::system.pc.south_bridge.ide.pio         1082                       # Packet count per connected master and slave (bytes)
system.iobus.pkt_count_system.ruby.l1_cntrl2.sequencer.mem-master-port::system.pc.south_bridge.io_apic.pio            8                       # Packet count per connected master and slave (bytes)
system.iobus.pkt_count_system.ruby.l1_cntrl2.sequencer.mem-master-port::system.ruby.l1_cntrl1.sequencer.pio-slave-port            6                       # Packet count per connected master and slave (bytes)
system.iobus.pkt_count_system.ruby.l1_cntrl2.sequencer.mem-master-port::system.ruby.l1_cntrl2.sequencer.pio-slave-port         2338                       # Packet count per connected master and slave (bytes)
system.iobus.pkt_count_system.ruby.l1_cntrl2.sequencer.mem-master-port::system.ruby.l1_cntrl3.sequencer.pio-slave-port            2                       # Packet count per connected master and slave (bytes)
system.iobus.pkt_count_system.ruby.l1_cntrl2.sequencer.mem-master-port::total         3436                       # Packet count per connected master and slave (bytes)
system.iobus.pkt_count_system.ruby.l1_cntrl3.sequencer.mem-master-port::system.pc.south_bridge.ide.pio          912                       # Packet count per connected master and slave (bytes)
system.iobus.pkt_count_system.ruby.l1_cntrl3.sequencer.mem-master-port::system.pc.south_bridge.io_apic.pio            8                       # Packet count per connected master and slave (bytes)
system.iobus.pkt_count_system.ruby.l1_cntrl3.sequencer.mem-master-port::system.ruby.l1_cntrl0.sequencer.pio-slave-port            2                       # Packet count per connected master and slave (bytes)
system.iobus.pkt_count_system.ruby.l1_cntrl3.sequencer.mem-master-port::system.ruby.l1_cntrl3.sequencer.pio-slave-port         2320                       # Packet count per connected master and slave (bytes)
system.iobus.pkt_count_system.ruby.l1_cntrl3.sequencer.mem-master-port::total         3242                       # Packet count per connected master and slave (bytes)
system.iobus.pkt_count::total                   14294                       # Packet count per connected master and slave (bytes)
system.iobus.pkt_size_system.pc.south_bridge.io_apic.int_master::system.ruby.l1_cntrl0.sequencer.pio-slave-port          100                       # Cumulative packet size per connected master and slave (bytes)
system.iobus.pkt_size_system.pc.south_bridge.io_apic.int_master::system.ruby.l1_cntrl1.sequencer.pio-slave-port          104                       # Cumulative packet size per connected master and slave (bytes)
system.iobus.pkt_size_system.pc.south_bridge.io_apic.int_master::system.ruby.l1_cntrl2.sequencer.pio-slave-port          104                       # Cumulative packet size per connected master and slave (bytes)
system.iobus.pkt_size_system.pc.south_bridge.io_apic.int_master::system.ruby.l1_cntrl3.sequencer.pio-slave-port          104                       # Cumulative packet size per connected master and slave (bytes)
system.iobus.pkt_size_system.pc.south_bridge.io_apic.int_master::total          412                       # Cumulative packet size per connected master and slave (bytes)
system.iobus.pkt_size_system.ruby.l1_cntrl0.sequencer.mem-master-port::system.pc.south_bridge.ide.pio          604                       # Cumulative packet size per connected master and slave (bytes)
system.iobus.pkt_size_system.ruby.l1_cntrl0.sequencer.mem-master-port::system.pc.south_bridge.io_apic.pio           12                       # Cumulative packet size per connected master and slave (bytes)
system.iobus.pkt_size_system.ruby.l1_cntrl0.sequencer.mem-master-port::system.pc.com_1.pio           87                       # Cumulative packet size per connected master and slave (bytes)
system.iobus.pkt_size_system.ruby.l1_cntrl0.sequencer.mem-master-port::system.ruby.l1_cntrl0.sequencer.pio-slave-port         4656                       # Cumulative packet size per connected master and slave (bytes)
system.iobus.pkt_size_system.ruby.l1_cntrl0.sequencer.mem-master-port::system.ruby.l1_cntrl1.sequencer.pio-slave-port            4                       # Cumulative packet size per connected master and slave (bytes)
system.iobus.pkt_size_system.ruby.l1_cntrl0.sequencer.mem-master-port::system.ruby.l1_cntrl2.sequencer.pio-slave-port            4                       # Cumulative packet size per connected master and slave (bytes)
system.iobus.pkt_size_system.ruby.l1_cntrl0.sequencer.mem-master-port::system.ruby.l1_cntrl3.sequencer.pio-slave-port            4                       # Cumulative packet size per connected master and slave (bytes)
system.iobus.pkt_size_system.ruby.l1_cntrl0.sequencer.mem-master-port::total         5371                       # Cumulative packet size per connected master and slave (bytes)
system.iobus.pkt_size_system.ruby.l1_cntrl1.sequencer.mem-master-port::system.pc.south_bridge.ide.pio          850                       # Cumulative packet size per connected master and slave (bytes)
system.iobus.pkt_size_system.ruby.l1_cntrl1.sequencer.mem-master-port::system.pc.south_bridge.io_apic.pio           16                       # Cumulative packet size per connected master and slave (bytes)
system.iobus.pkt_size_system.ruby.l1_cntrl1.sequencer.mem-master-port::system.pc.com_1.pio            1                       # Cumulative packet size per connected master and slave (bytes)
system.iobus.pkt_size_system.ruby.l1_cntrl1.sequencer.mem-master-port::system.ruby.l1_cntrl1.sequencer.pio-slave-port         4648                       # Cumulative packet size per connected master and slave (bytes)
system.iobus.pkt_size_system.ruby.l1_cntrl1.sequencer.mem-master-port::system.ruby.l1_cntrl2.sequencer.pio-slave-port            4                       # Cumulative packet size per connected master and slave (bytes)
system.iobus.pkt_size_system.ruby.l1_cntrl1.sequencer.mem-master-port::total         5519                       # Cumulative packet size per connected master and slave (bytes)
system.iobus.pkt_size_system.ruby.l1_cntrl2.sequencer.mem-master-port::system.pc.south_bridge.ide.pio          610                       # Cumulative packet size per connected master and slave (bytes)
system.iobus.pkt_size_system.ruby.l1_cntrl2.sequencer.mem-master-port::system.pc.south_bridge.io_apic.pio           16                       # Cumulative packet size per connected master and slave (bytes)
system.iobus.pkt_size_system.ruby.l1_cntrl2.sequencer.mem-master-port::system.ruby.l1_cntrl1.sequencer.pio-slave-port           12                       # Cumulative packet size per connected master and slave (bytes)
system.iobus.pkt_size_system.ruby.l1_cntrl2.sequencer.mem-master-port::system.ruby.l1_cntrl2.sequencer.pio-slave-port         4676                       # Cumulative packet size per connected master and slave (bytes)
system.iobus.pkt_size_system.ruby.l1_cntrl2.sequencer.mem-master-port::system.ruby.l1_cntrl3.sequencer.pio-slave-port            4                       # Cumulative packet size per connected master and slave (bytes)
system.iobus.pkt_size_system.ruby.l1_cntrl2.sequencer.mem-master-port::total         5318                       # Cumulative packet size per connected master and slave (bytes)
system.iobus.pkt_size_system.ruby.l1_cntrl3.sequencer.mem-master-port::system.pc.south_bridge.ide.pio          510                       # Cumulative packet size per connected master and slave (bytes)
system.iobus.pkt_size_system.ruby.l1_cntrl3.sequencer.mem-master-port::system.pc.south_bridge.io_apic.pio           16                       # Cumulative packet size per connected master and slave (bytes)
system.iobus.pkt_size_system.ruby.l1_cntrl3.sequencer.mem-master-port::system.ruby.l1_cntrl0.sequencer.pio-slave-port            4                       # Cumulative packet size per connected master and slave (bytes)
system.iobus.pkt_size_system.ruby.l1_cntrl3.sequencer.mem-master-port::system.ruby.l1_cntrl3.sequencer.pio-slave-port         4640                       # Cumulative packet size per connected master and slave (bytes)
system.iobus.pkt_size_system.ruby.l1_cntrl3.sequencer.mem-master-port::total         5170                       # Cumulative packet size per connected master and slave (bytes)
system.iobus.pkt_size::total                    21790                       # Cumulative packet size per connected master and slave (bytes)
system.iobus.reqLayer2.occupancy              3966000                       # Layer occupancy (ticks)
system.iobus.reqLayer2.utilization                0.0                       # Layer utilization (%)
system.iobus.reqLayer8.occupancy                26496                       # Layer occupancy (ticks)
system.iobus.reqLayer8.utilization                0.0                       # Layer utilization (%)
system.iobus.reqLayer12.occupancy              112500                       # Layer occupancy (ticks)
system.iobus.reqLayer12.utilization               0.0                       # Layer utilization (%)
system.iobus.reqLayer17.occupancy             2548474                       # Layer occupancy (ticks)
system.iobus.reqLayer17.utilization               0.0                       # Layer utilization (%)
system.iobus.reqLayer18.occupancy             2850475                       # Layer occupancy (ticks)
system.iobus.reqLayer18.utilization               0.0                       # Layer utilization (%)
system.iobus.reqLayer19.occupancy             3253372                       # Layer occupancy (ticks)
system.iobus.reqLayer19.utilization               0.0                       # Layer utilization (%)
system.iobus.reqLayer20.occupancy             2703475                       # Layer occupancy (ticks)
system.iobus.reqLayer20.utilization               0.0                       # Layer utilization (%)
system.iobus.respLayer0.occupancy              174401                       # Layer occupancy (ticks)
system.iobus.respLayer0.utilization               0.0                       # Layer utilization (%)
system.iobus.respLayer2.occupancy             2631000                       # Layer occupancy (ticks)
system.iobus.respLayer2.utilization               0.0                       # Layer utilization (%)
system.iobus.respLayer4.occupancy             2737000                       # Layer occupancy (ticks)
system.iobus.respLayer4.utilization               0.0                       # Layer utilization (%)
system.iobus.respLayer6.occupancy             2500500                       # Layer occupancy (ticks)
system.iobus.respLayer6.utilization               0.0                       # Layer utilization (%)
system.iobus.respLayer8.occupancy             2376000                       # Layer occupancy (ticks)
system.iobus.respLayer8.utilization               0.0                       # Layer utilization (%)
system.pc.south_bridge.ide.disks.dma_read_full_pages         1523                       # Number of full page size DMA reads (not PRD).
system.pc.south_bridge.ide.disks.dma_read_bytes      6238208                       # Number of bytes transfered via DMA reads (not PRD).
system.pc.south_bridge.ide.disks.dma_read_txs         1523                       # Number of DMA read transactions (not PRD).
system.pc.south_bridge.ide.disks.dma_write_full_pages           45                       # Number of full page size DMA writes.
system.pc.south_bridge.ide.disks.dma_write_bytes       184320                       # Number of bytes transfered via DMA writes.
system.pc.south_bridge.ide.disks.dma_write_txs           45                       # Number of DMA write transactions.
system.ruby.clk_domain.clock                      500                       # Clock period in ticks
[...]
system.ruby.LD.Directory.miss_type_mach_latency_hist_seqr::total     29181460                      
system.ruby.ST.L1Cache.miss_type_mach_latency_hist_seqr::bucket_size            8                      
system.ruby.ST.L1Cache.miss_type_mach_latency_hist_seqr::max_bucket           79                      
system.ruby.ST.L1Cache.miss_type_mach_latency_hist_seqr::samples         1396                      
system.ruby.ST.L1Cache.miss_type_mach_latency_hist_seqr::mean    50.218481                      
system.ruby.ST.L1Cache.miss_type_mach_latency_hist_seqr::gmean    50.054061                      
system.ruby.ST.L1Cache.miss_type_mach_latency_hist_seqr::stdev     4.025756                      
system.ruby.ST.L1Cache.miss_type_mach_latency_hist_seqr |           0      0.00%      0.00% |           0      0.00%      0.00% |           0      0.00%      0.00% |           0      0.00%      0.00% |           0      0.00%      0.00% |         499     35.74%     35.74% |         871     62.39%     98.14% |          26      1.86%    100.00% |           0      0.00%    100.00% |           0      0.00%    100.00%
system.ruby.ST.L1Cache.miss_type_mach_latency_hist_seqr::total         1396                      
system.ruby.ST.Directory.miss_type_mach_latency_hist_seqr::bucket_size          256                      
system.ruby.ST.Directory.miss_type_mach_latency_hist_seqr::max_bucket         2559                      
system.ruby.ST.Directory.miss_type_mach_latency_hist_seqr::samples      3261988                      
system.ruby.ST.Directory.miss_type_mach_latency_hist_seqr::mean   150.207672                      
system.ruby.ST.Directory.miss_type_mach_latency_hist_seqr::gmean   127.027211                      
system.ruby.ST.Directory.miss_type_mach_latency_hist_seqr::stdev   102.817333                      
system.ruby.ST.Directory.miss_type_mach_latency_hist_seqr |     2854111     87.50%     87.50% |      364720     11.18%     98.68% |       37705      1.16%     99.83% |        4573      0.14%     99.97% |         871      0.03%    100.00% |           8      0.00%    100.00% |           0      0.00%    100.00% |           0      0.00%    100.00% |           0      0.00%    100.00% |           0      0.00%    100.00%
system.ruby.ST.Directory.miss_type_mach_latency_hist_seqr::total      3261988                      
system.ruby.IFETCH.L1Cache.miss_type_mach_latency_hist_seqr::bucket_size          128                      
system.ruby.IFETCH.L1Cache.miss_type_mach_latency_hist_seqr::max_bucket         1279                      
system.ruby.IFETCH.L1Cache.miss_type_mach_latency_hist_seqr::samples       967708                      
system.ruby.IFETCH.L1Cache.miss_type_mach_latency_hist_seqr::mean    47.366758                      
system.ruby.IFETCH.L1Cache.miss_type_mach_latency_hist_seqr::gmean    47.229020                      
system.ruby.IFETCH.L1Cache.miss_type_mach_latency_hist_seqr::stdev     3.766648                      
system.ruby.IFETCH.L1Cache.miss_type_mach_latency_hist_seqr |      967697    100.00%    100.00% |           9      0.00%    100.00% |           1      0.00%    100.00% |           0      0.00%    100.00% |           0      0.00%    100.00% |           1      0.00%    100.00% |           0      0.00%    100.00% |           0      0.00%    100.00% |           0      0.00%    100.00% |           0      0.00%    100.00%
system.ruby.IFETCH.L1Cache.miss_type_mach_latency_hist_seqr::total       967708                      
system.ruby.IFETCH.Directory.miss_type_mach_latency_hist_seqr::bucket_size          256                      
system.ruby.IFETCH.Directory.miss_type_mach_latency_hist_seqr::max_bucket         2559                      
system.ruby.IFETCH.Directory.miss_type_mach_latency_hist_seqr::samples     12965781                      
system.ruby.IFETCH.Directory.miss_type_mach_latency_hist_seqr::mean   138.598728                      
system.ruby.IFETCH.Directory.miss_type_mach_latency_hist_seqr::gmean   114.569925                      
system.ruby.IFETCH.Directory.miss_type_mach_latency_hist_seqr::stdev    99.535943                      
system.ruby.IFETCH.Directory.miss_type_mach_latency_hist_seqr |    11543165     89.03%     89.03% |     1272117      9.81%     98.84% |      131871      1.02%     99.86% |       15959      0.12%     99.98% |        2646      0.02%    100.00% |          23      0.00%    100.00% |           0      0.00%    100.00% |           0      0.00%    100.00% |           0      0.00%    100.00% |           0      0.00%    100.00%
system.ruby.IFETCH.Directory.miss_type_mach_latency_hist_seqr::total     12965781                      
system.ruby.RMW_Read.L1Cache.miss_type_mach_latency_hist_seqr::bucket_size            8                      
system.ruby.RMW_Read.L1Cache.miss_type_mach_latency_hist_seqr::max_bucket           79                      
system.ruby.RMW_Read.L1Cache.miss_type_mach_latency_hist_seqr::samples         3861                      
system.ruby.RMW_Read.L1Cache.miss_type_mach_latency_hist_seqr::mean    46.310541                      
system.ruby.RMW_Read.L1Cache.miss_type_mach_latency_hist_seqr::gmean    46.214191                      
system.ruby.RMW_Read.L1Cache.miss_type_mach_latency_hist_seqr::stdev     3.146454                      
system.ruby.RMW_Read.L1Cache.miss_type_mach_latency_hist_seqr |           0      0.00%      0.00% |           0      0.00%      0.00% |           0      0.00%      0.00% |           0      0.00%      0.00% |           0      0.00%      0.00% |        3229     83.63%     83.63% |         571     14.79%     98.42% |          51      1.32%     99.74% |          10      0.26%    100.00% |           0      0.00%    100.00%
system.ruby.RMW_Read.L1Cache.miss_type_mach_latency_hist_seqr::total         3861                      
system.ruby.RMW_Read.Directory.miss_type_mach_latency_hist_seqr::bucket_size          128                      
system.ruby.RMW_Read.Directory.miss_type_mach_latency_hist_seqr::max_bucket         1279                      
system.ruby.RMW_Read.Directory.miss_type_mach_latency_hist_seqr::samples        40455                      
system.ruby.RMW_Read.Directory.miss_type_mach_latency_hist_seqr::mean   173.143221                      
system.ruby.RMW_Read.Directory.miss_type_mach_latency_hist_seqr::gmean   159.877543                      
system.ruby.RMW_Read.Directory.miss_type_mach_latency_hist_seqr::stdev    83.716316                      
system.ruby.RMW_Read.Directory.miss_type_mach_latency_hist_seqr |        7254     17.93%     17.93% |       28482     70.40%     88.34% |        3740      9.24%     97.58% |         457      1.13%     98.71% |         295      0.73%     99.44% |         172      0.43%     99.86% |          27      0.07%     99.93% |          28      0.07%    100.00% |           0      0.00%    100.00% |           0      0.00%    100.00%
system.ruby.RMW_Read.Directory.miss_type_mach_latency_hist_seqr::total        40455                      
system.ruby.Locked_RMW_Read.L1Cache.miss_type_mach_latency_hist_seqr::bucket_size            8                      
system.ruby.Locked_RMW_Read.L1Cache.miss_type_mach_latency_hist_seqr::max_bucket           79                      
system.ruby.Locked_RMW_Read.L1Cache.miss_type_mach_latency_hist_seqr::samples         5805                      
system.ruby.Locked_RMW_Read.L1Cache.miss_type_mach_latency_hist_seqr::mean    46.452541                      
system.ruby.Locked_RMW_Read.L1Cache.miss_type_mach_latency_hist_seqr::gmean    46.358661                      
system.ruby.Locked_RMW_Read.L1Cache.miss_type_mach_latency_hist_seqr::stdev     3.074152                      
system.ruby.Locked_RMW_Read.L1Cache.miss_type_mach_latency_hist_seqr |           0      0.00%      0.00% |           0      0.00%      0.00% |           0      0.00%      0.00% |           0      0.00%      0.00% |           0      0.00%      0.00% |        4729     81.46%     81.46% |        1031     17.76%     99.22% |          44      0.76%     99.98% |           1      0.02%    100.00% |           0      0.00%    100.00%
system.ruby.Locked_RMW_Read.L1Cache.miss_type_mach_latency_hist_seqr::total         5805                      
system.ruby.Locked_RMW_Read.Directory.miss_type_mach_latency_hist_seqr::bucket_size          128                      
system.ruby.Locked_RMW_Read.Directory.miss_type_mach_latency_hist_seqr::max_bucket         1279                      
system.ruby.Locked_RMW_Read.Directory.miss_type_mach_latency_hist_seqr::samples        16051                      
system.ruby.Locked_RMW_Read.Directory.miss_type_mach_latency_hist_seqr::mean   170.472058                      
system.ruby.Locked_RMW_Read.Directory.miss_type_mach_latency_hist_seqr::gmean   156.756010                      
system.ruby.Locked_RMW_Read.Directory.miss_type_mach_latency_hist_seqr::stdev    86.555602                      
system.ruby.Locked_RMW_Read.Directory.miss_type_mach_latency_hist_seqr |        3762     23.44%     23.44% |       10591     65.98%     89.42% |        1227      7.64%     97.07% |         235      1.46%     98.53% |         135      0.84%     99.37% |          67      0.42%     99.79% |          20      0.12%     99.91% |          12      0.07%     99.99% |           2      0.01%    100.00% |           0      0.00%    100.00%
system.ruby.Locked_RMW_Read.Directory.miss_type_mach_latency_hist_seqr::total        16051                      
system.ruby.Directory_Controller.GETX        23512388      0.00%      0.00%
system.ruby.Directory_Controller.PUTX        22834284      0.00%      0.00%
system.ruby.Directory_Controller.PUTX_NotOwner            5      0.00%      0.00%
system.ruby.Directory_Controller.DMA_READ        49624      0.00%      0.00%
system.ruby.Directory_Controller.DMA_WRITE         1504      0.00%      0.00%
system.ruby.Directory_Controller.Memory_Data     22883881      0.00%      0.00%
system.ruby.Directory_Controller.Memory_Ack     22835782      0.00%      0.00%
system.ruby.Directory_Controller.I.GETX      22834325      0.00%      0.00%
system.ruby.Directory_Controller.I.DMA_READ        49556      0.00%      0.00%
system.ruby.Directory_Controller.I.DMA_WRITE         1498      0.00%      0.00%
system.ruby.Directory_Controller.M.GETX        677681      0.00%      0.00%
system.ruby.Directory_Controller.M.PUTX      22834210      0.00%      0.00%
system.ruby.Directory_Controller.M.PUTX_NotOwner            5      0.00%      0.00%
system.ruby.Directory_Controller.M.DMA_READ           68      0.00%      0.00%
system.ruby.Directory_Controller.M.DMA_WRITE            6      0.00%      0.00%
system.ruby.Directory_Controller.M_DRD.PUTX           68      0.00%      0.00%
system.ruby.Directory_Controller.M_DWR.PUTX            6      0.00%      0.00%
system.ruby.Directory_Controller.M_DWRI.Memory_Ack            6      0.00%      0.00%
system.ruby.Directory_Controller.M_DRDI.Memory_Ack           68      0.00%      0.00%
system.ruby.Directory_Controller.IM.GETX          375      0.00%      0.00%
system.ruby.Directory_Controller.IM.Memory_Data     22834325      0.00%      0.00%
system.ruby.Directory_Controller.MI.GETX            7      0.00%      0.00%
system.ruby.Directory_Controller.MI.Memory_Ack     22834210      0.00%      0.00%
system.ruby.Directory_Controller.ID.Memory_Data        49556      0.00%      0.00%
system.ruby.Directory_Controller.ID_W.Memory_Ack         1498      0.00%      0.00%
system.ruby.DMA_Controller.ReadRequest   |       49624    100.00%    100.00% |           0      0.00%    100.00%
system.ruby.DMA_Controller.ReadRequest::total        49624                      
system.ruby.DMA_Controller.WriteRequest  |        1504    100.00%    100.00% |           0      0.00%    100.00%
system.ruby.DMA_Controller.WriteRequest::total         1504                      
system.ruby.DMA_Controller.Data          |       49624    100.00%    100.00% |           0      0.00%    100.00%
system.ruby.DMA_Controller.Data::total          49624                      
system.ruby.DMA_Controller.Ack           |        1504    100.00%    100.00% |           0      0.00%    100.00%
system.ruby.DMA_Controller.Ack::total            1504                      
system.ruby.DMA_Controller.READY.ReadRequest |       49624    100.00%    100.00% |           0      0.00%    100.00%
system.ruby.DMA_Controller.READY.ReadRequest::total        49624                      
system.ruby.DMA_Controller.READY.WriteRequest |        1504    100.00%    100.00% |           0      0.00%    100.00%
system.ruby.DMA_Controller.READY.WriteRequest::total         1504                      
system.ruby.DMA_Controller.BUSY_RD.Data  |       49624    100.00%    100.00% |           0      0.00%    100.00%
system.ruby.DMA_Controller.BUSY_RD.Data::total        49624                      
system.ruby.DMA_Controller.BUSY_WR.Ack   |        1504    100.00%    100.00% |           0      0.00%    100.00%
system.ruby.DMA_Controller.BUSY_WR.Ack::total         1504                      
system.ruby.L1Cache_Controller.Load      |     3473781      0.70%      0.70% |     1827165      0.37%      1.07% |   486731626     98.57%     99.65% |     1745585      0.35%    100.00%
system.ruby.L1Cache_Controller.Load::total    493778157                      
system.ruby.L1Cache_Controller.Ifetch    |    18801609      0.00%      0.00% |     8946306      0.00%      0.00% |18446744071625136128    100.00%    100.00% |     8841340      0.00%    100.00%
system.ruby.L1Cache_Controller.Ifetch::total 18446744071661725696                      
system.ruby.L1Cache_Controller.Store     |     2740681      1.58%      1.58% |     1252822      0.72%      2.29% |   168716827     96.96%     99.25% |     1300376      0.75%    100.00%
system.ruby.L1Cache_Controller.Store::total    174010706                      
system.ruby.L1Cache_Controller.Data      |      393207      1.67%      1.67% |      309489      1.32%      2.99% |    22518626     95.78%     98.76% |      290684      1.24%    100.00%
system.ruby.L1Cache_Controller.Data::total     23512006                      
system.ruby.L1Cache_Controller.Fwd_GETX  |      213586     31.52%     31.52% |      214758     31.69%     63.21% |       53206      7.85%     71.06% |      196131     28.94%    100.00%
system.ruby.L1Cache_Controller.Fwd_GETX::total       677681                      
system.ruby.L1Cache_Controller.Inv       |          46     31.08%     31.08% |          58     39.19%     70.27% |           4      2.70%     72.97% |          40     27.03%    100.00%
system.ruby.L1Cache_Controller.Inv::total          148                      
system.ruby.L1Cache_Controller.Replacement |      212024      0.92%      0.92% |      121321      0.53%      1.45% |    22480422     98.02%     99.48% |      120123      0.52%    100.00%
system.ruby.L1Cache_Controller.Replacement::total     22933890                      
system.ruby.L1Cache_Controller.Writeback_Ack |      179890      0.79%      0.79% |       94311      0.41%      1.20% |    22465459     98.38%     99.59% |       94624      0.41%    100.00%
system.ruby.L1Cache_Controller.Writeback_Ack::total     22834284                      
system.ruby.L1Cache_Controller.Writeback_Nack |           1     20.00%     20.00% |           1     20.00%     40.00% |           2     40.00%     80.00% |           1     20.00%    100.00%
system.ruby.L1Cache_Controller.Writeback_Nack::total            5                      
system.ruby.L1Cache_Controller.I.Load    |      146911      0.99%      0.99% |       88040      0.60%      1.59% |    14470975     97.84%     99.43% |       84982      0.57%    100.00%
system.ruby.L1Cache_Controller.I.Load::total     14790908                      
system.ruby.L1Cache_Controller.I.Ifetch  |      210510      2.99%      2.99% |      206505      2.93%      5.93% |     6428403     91.35%     97.28% |      191622      2.72%    100.00%
system.ruby.L1Cache_Controller.I.Ifetch::total      7037040                      
system.ruby.L1Cache_Controller.I.Store   |       35786      2.12%      2.12% |       14944      0.89%      3.01% |     1619248     96.15%     99.16% |       14080      0.84%    100.00%
system.ruby.L1Cache_Controller.I.Store::total      1684058                      
system.ruby.L1Cache_Controller.I.Replacement |       32156     32.26%     32.26% |       27038     27.13%     59.39% |       14963     15.01%     74.40% |       25518     25.60%    100.00%
system.ruby.L1Cache_Controller.I.Replacement::total        99675                      
system.ruby.L1Cache_Controller.II.Writeback_Nack |           1     20.00%     20.00% |           1     20.00%     40.00% |           2     40.00%     80.00% |           1     20.00%    100.00%
system.ruby.L1Cache_Controller.II.Writeback_Nack::total            5                      
system.ruby.L1Cache_Controller.M.Load    |     3326870      0.69%      0.69% |     1739125      0.36%      1.06% |   472260651     98.60%     99.65% |     1660603      0.35%    100.00%
system.ruby.L1Cache_Controller.M.Load::total    478987249                      
system.ruby.L1Cache_Controller.M.Ifetch  |    18591099      0.00%      0.00% |     8739801      0.00%      0.00% |18446744071618707456    100.00%    100.00% |     8649718      0.00%    100.00%
system.ruby.L1Cache_Controller.M.Ifetch::total 18446744071654686720                      
system.ruby.L1Cache_Controller.M.Store   |     2704895      1.57%      1.57% |     1237878      0.72%      2.29% |   167097579     96.97%     99.25% |     1286296      0.75%    100.00%
system.ruby.L1Cache_Controller.M.Store::total    172326648                      
system.ruby.L1Cache_Controller.M.Fwd_GETX |      213585     31.52%     31.52% |      214757     31.69%     63.21% |       53204      7.85%     71.06% |      196130     28.94%    100.00%
system.ruby.L1Cache_Controller.M.Fwd_GETX::total       677676                      
system.ruby.L1Cache_Controller.M.Inv     |          23     31.08%     31.08% |          29     39.19%     70.27% |           2      2.70%     72.97% |          20     27.03%    100.00%
system.ruby.L1Cache_Controller.M.Inv::total           74                      
system.ruby.L1Cache_Controller.M.Replacement |      179868      0.79%      0.79% |       94283      0.41%      1.20% |    22465459     98.39%     99.59% |       94605      0.41%    100.00%
system.ruby.L1Cache_Controller.M.Replacement::total     22834215                      
system.ruby.L1Cache_Controller.MI.Fwd_GETX |           1     20.00%     20.00% |           1     20.00%     40.00% |           2     40.00%     80.00% |           1     20.00%    100.00%
system.ruby.L1Cache_Controller.MI.Fwd_GETX::total            5                      
system.ruby.L1Cache_Controller.MI.Inv    |          23     31.08%     31.08% |          29     39.19%     70.27% |           2      2.70%     72.97% |          20     27.03%    100.00%
system.ruby.L1Cache_Controller.MI.Inv::total           74                      
system.ruby.L1Cache_Controller.MI.Writeback_Ack |      179890      0.79%      0.79% |       94311      0.41%      1.20% |    22465459     98.38%     99.59% |       94624      0.41%    100.00%
system.ruby.L1Cache_Controller.MI.Writeback_Ack::total     22834284                      
system.ruby.L1Cache_Controller.IS.Data   |      357421      1.64%      1.64% |      294545      1.35%      2.99% |    20899378     95.75%     98.73% |      276604      1.27%    100.00%
system.ruby.L1Cache_Controller.IS.Data::total     21827948                      
system.ruby.L1Cache_Controller.IM.Data   |       35786      2.12%      2.12% |       14944      0.89%      3.01% |     1619248     96.15%     99.16% |       14080      0.84%    100.00%
system.ruby.L1Cache_Controller.IM.Data::total      1684058                      

---------- End Simulation Statistics   ----------
