
---------- Begin Simulation Statistics ----------
sim_seconds                                  3.935403                       # Number of seconds simulated
sim_ticks                                3935402908000                       # Number of ticks simulated
final_tick                               56132953850501                       # Number of ticks from beginning of simulation (restored from checkpoints and never reset)
sim_freq                                 1000000000000                       # Frequency of simulated ticks
host_inst_rate                                 156907                       # Simulator instruction rate (inst/s)
host_op_rate                                   219976                       # Simulator op (including micro ops) rate (op/s)
host_tick_rate                              274372551                       # Simulator tick rate (ticks/s)
host_mem_usage                                1938156                       # Number of bytes of host memory used
host_seconds                                 14343.28                       # Real time elapsed on the host
sim_insts                                  2250559256                       # Number of instructions simulated
sim_ops                                    3155170942                       # Number of ops (including micro ops) simulated
system.voltage_domain.voltage                       1                       # Voltage in Volts
system.clk_domain.clock                          1000                       # Clock period in ticks
system.mem_ctrls0.bytes_read::ruby.dir_cntrl0     29974848                       # Number of bytes read from this memory
system.mem_ctrls0.bytes_read::total          29974848                       # Number of bytes read from this memory
system.mem_ctrls0.bytes_written::ruby.dir_cntrl0     12628480                       # Number of bytes written to this memory
system.mem_ctrls0.bytes_written::total       12628480                       # Number of bytes written to this memory
system.mem_ctrls0.num_reads::ruby.dir_cntrl0       468357                       # Number of read requests responded to by this memory
system.mem_ctrls0.num_reads::total             468357                       # Number of read requests responded to by this memory
system.mem_ctrls0.num_writes::ruby.dir_cntrl0       197320                       # Number of write requests responded to by this memory
system.mem_ctrls0.num_writes::total            197320                       # Number of write requests responded to by this memory
system.mem_ctrls0.bw_read::ruby.dir_cntrl0      7616716                       # Total read bandwidth from this memory (bytes/s)
system.mem_ctrls0.bw_read::total              7616716                       # Total read bandwidth from this memory (bytes/s)
system.mem_ctrls0.bw_write::ruby.dir_cntrl0      3208942                       # Write bandwidth from this memory (bytes/s)
system.mem_ctrls0.bw_write::total             3208942                       # Write bandwidth from this memory (bytes/s)
system.mem_ctrls0.bw_total::ruby.dir_cntrl0     10825659                       # Total bandwidth to/from this memory (bytes/s)
system.mem_ctrls0.bw_total::total            10825659                       # Total bandwidth to/from this memory (bytes/s)
system.mem_ctrls0.readReqs                     468357                       # Number of read requests accepted
system.mem_ctrls0.writeReqs                    197320                       # Number of write requests accepted
system.mem_ctrls0.readBursts                   468357                       # Number of DRAM read bursts, including those serviced by the write queue
system.mem_ctrls0.writeBursts                  197320                       # Number of DRAM write bursts, including those merged in the write queue
system.mem_ctrls0.bytesReadDRAM              29920064                       # Total number of bytes read from DRAM
system.mem_ctrls0.bytesReadWrQ                  54784                       # Total number of bytes read from write queue
system.mem_ctrls0.bytesWritten               12626752                       # Total number of bytes written to DRAM
system.mem_ctrls0.bytesReadSys               29974848                       # Total read bytes from the system interface side
system.mem_ctrls0.bytesWrittenSys            12628480                       # Total written bytes from the system interface side
system.mem_ctrls0.servicedByWrQ                   856                       # Number of DRAM read bursts serviced by the write queue
system.mem_ctrls0.mergedWrBursts                    0                       # Number of DRAM write bursts merged with an existing one
system.mem_ctrls0.neitherReadNorWriteReqs            0                       # Number of requests that are neither read nor write
system.mem_ctrls0.perBankRdBursts::0            33895                       # Per bank write bursts
system.mem_ctrls0.perBankRdBursts::1            34347                       # Per bank write bursts
system.mem_ctrls0.perBankRdBursts::2            34827                       # Per bank write bursts
system.mem_ctrls0.perBankRdBursts::3            28096                       # Per bank write bursts
system.mem_ctrls0.perBankRdBursts::4            26408                       # Per bank write bursts
system.mem_ctrls0.perBankRdBursts::5            26635                       # Per bank write bursts
system.mem_ctrls0.perBankRdBursts::6            25386                       # Per bank write bursts
system.mem_ctrls0.perBankRdBursts::7            28961                       # Per bank write bursts
system.mem_ctrls0.perBankRdBursts::8            27137                       # Per bank write bursts
system.mem_ctrls0.perBankRdBursts::9            30440                       # Per bank write bursts
system.mem_ctrls0.perBankRdBursts::10           30394                       # Per bank write bursts
system.mem_ctrls0.perBankRdBursts::11           27561                       # Per bank write bursts
system.mem_ctrls0.perBankRdBursts::12           27077                       # Per bank write bursts
system.mem_ctrls0.perBankRdBursts::13           27321                       # Per bank write bursts
system.mem_ctrls0.perBankRdBursts::14           26362                       # Per bank write bursts
system.mem_ctrls0.perBankRdBursts::15           32654                       # Per bank write bursts
system.mem_ctrls0.perBankWrBursts::0            14244                       # Per bank write bursts
system.mem_ctrls0.perBankWrBursts::1            14283                       # Per bank write bursts
system.mem_ctrls0.perBankWrBursts::2            14480                       # Per bank write bursts
system.mem_ctrls0.perBankWrBursts::3            12220                       # Per bank write bursts
system.mem_ctrls0.perBankWrBursts::4            11421                       # Per bank write bursts
system.mem_ctrls0.perBankWrBursts::5            11428                       # Per bank write bursts
system.mem_ctrls0.perBankWrBursts::6            10929                       # Per bank write bursts
system.mem_ctrls0.perBankWrBursts::7            12359                       # Per bank write bursts
system.mem_ctrls0.perBankWrBursts::8            11275                       # Per bank write bursts
system.mem_ctrls0.perBankWrBursts::9            12775                       # Per bank write bursts
system.mem_ctrls0.perBankWrBursts::10           12372                       # Per bank write bursts
system.mem_ctrls0.perBankWrBursts::11           11664                       # Per bank write bursts
system.mem_ctrls0.perBankWrBursts::12           11434                       # Per bank write bursts
system.mem_ctrls0.perBankWrBursts::13           11729                       # Per bank write bursts
system.mem_ctrls0.perBankWrBursts::14           11332                       # Per bank write bursts
system.mem_ctrls0.perBankWrBursts::15           13348                       # Per bank write bursts
system.mem_ctrls0.numRdRetry                        0                       # Number of times read queue was full causing retry
system.mem_ctrls0.numWrRetry                        0                       # Number of times write queue was full causing retry
system.mem_ctrls0.totGap                 3935401406500                       # Total gap between requests
system.mem_ctrls0.readPktSize::0                    0                       # Read request sizes (log2)
system.mem_ctrls0.readPktSize::1                    0                       # Read request sizes (log2)
system.mem_ctrls0.readPktSize::2                    0                       # Read request sizes (log2)
system.mem_ctrls0.readPktSize::3                    0                       # Read request sizes (log2)
system.mem_ctrls0.readPktSize::4                    0                       # Read request sizes (log2)
system.mem_ctrls0.readPktSize::5                    0                       # Read request sizes (log2)
system.mem_ctrls0.readPktSize::6               468357                       # Read request sizes (log2)
system.mem_ctrls0.writePktSize::0                   0                       # Write request sizes (log2)
system.mem_ctrls0.writePktSize::1                   0                       # Write request sizes (log2)
system.mem_ctrls0.writePktSize::2                   0                       # Write request sizes (log2)
system.mem_ctrls0.writePktSize::3                   0                       # Write request sizes (log2)
system.mem_ctrls0.writePktSize::4                   0                       # Write request sizes (log2)
system.mem_ctrls0.writePktSize::5                   0                       # Write request sizes (log2)
system.mem_ctrls0.writePktSize::6              197320                       # Write request sizes (log2)
system.mem_ctrls0.rdQLenPdf::0                 467401                       # What read queue length does an incoming req see
system.mem_ctrls0.rdQLenPdf::1                    100                       # What read queue length does an incoming req see
system.mem_ctrls0.rdQLenPdf::2                      0                       # What read queue length does an incoming req see
system.mem_ctrls0.rdQLenPdf::3                      0                       # What read queue length does an incoming req see
system.mem_ctrls0.rdQLenPdf::4                      0                       # What read queue length does an incoming req see
system.mem_ctrls0.rdQLenPdf::5                      0                       # What read queue length does an incoming req see
system.mem_ctrls0.rdQLenPdf::6                      0                       # What read queue length does an incoming req see
system.mem_ctrls0.rdQLenPdf::7                      0                       # What read queue length does an incoming req see
system.mem_ctrls0.rdQLenPdf::8                      0                       # What read queue length does an incoming req see
system.mem_ctrls0.rdQLenPdf::9                      0                       # What read queue length does an incoming req see
system.mem_ctrls0.rdQLenPdf::10                     0                       # What read queue length does an incoming req see
system.mem_ctrls0.rdQLenPdf::11                     0                       # What read queue length does an incoming req see
system.mem_ctrls0.rdQLenPdf::12                     0                       # What read queue length does an incoming req see
system.mem_ctrls0.rdQLenPdf::13                     0                       # What read queue length does an incoming req see
system.mem_ctrls0.rdQLenPdf::14                     0                       # What read queue length does an incoming req see
system.mem_ctrls0.rdQLenPdf::15                     0                       # What read queue length does an incoming req see
system.mem_ctrls0.rdQLenPdf::16                     0                       # What read queue length does an incoming req see
system.mem_ctrls0.rdQLenPdf::17                     0                       # What read queue length does an incoming req see
system.mem_ctrls0.rdQLenPdf::18                     0                       # What read queue length does an incoming req see
system.mem_ctrls0.rdQLenPdf::19                     0                       # What read queue length does an incoming req see
system.mem_ctrls0.rdQLenPdf::20                     0                       # What read queue length does an incoming req see
system.mem_ctrls0.rdQLenPdf::21                     0                       # What read queue length does an incoming req see
system.mem_ctrls0.rdQLenPdf::22                     0                       # What read queue length does an incoming req see
system.mem_ctrls0.rdQLenPdf::23                     0                       # What read queue length does an incoming req see
system.mem_ctrls0.rdQLenPdf::24                     0                       # What read queue length does an incoming req see
system.mem_ctrls0.rdQLenPdf::25                     0                       # What read queue length does an incoming req see
system.mem_ctrls0.rdQLenPdf::26                     0                       # What read queue length does an incoming req see
system.mem_ctrls0.rdQLenPdf::27                     0                       # What read queue length does an incoming req see
system.mem_ctrls0.rdQLenPdf::28                     0                       # What read queue length does an incoming req see
system.mem_ctrls0.rdQLenPdf::29                     0                       # What read queue length does an incoming req see
system.mem_ctrls0.rdQLenPdf::30                     0                       # What read queue length does an incoming req see
system.mem_ctrls0.rdQLenPdf::31                     0                       # What read queue length does an incoming req see
system.mem_ctrls0.wrQLenPdf::0                      1                       # What write queue length does an incoming req see
system.mem_ctrls0.wrQLenPdf::1                      1                       # What write queue length does an incoming req see
system.mem_ctrls0.wrQLenPdf::2                      1                       # What write queue length does an incoming req see
system.mem_ctrls0.wrQLenPdf::3                      1                       # What write queue length does an incoming req see
system.mem_ctrls0.wrQLenPdf::4                      1                       # What write queue length does an incoming req see
system.mem_ctrls0.wrQLenPdf::5                      1                       # What write queue length does an incoming req see
system.mem_ctrls0.wrQLenPdf::6                      1                       # What write queue length does an incoming req see
system.mem_ctrls0.wrQLenPdf::7                      1                       # What write queue length does an incoming req see
system.mem_ctrls0.wrQLenPdf::8                      1                       # What write queue length does an incoming req see
system.mem_ctrls0.wrQLenPdf::9                      1                       # What write queue length does an incoming req see
system.mem_ctrls0.wrQLenPdf::10                     1                       # What write queue length does an incoming req see
system.mem_ctrls0.wrQLenPdf::11                     1                       # What write queue length does an incoming req see
system.mem_ctrls0.wrQLenPdf::12                     1                       # What write queue length does an incoming req see
system.mem_ctrls0.wrQLenPdf::13                     1                       # What write queue length does an incoming req see
system.mem_ctrls0.wrQLenPdf::14                     1                       # What write queue length does an incoming req see
system.mem_ctrls0.wrQLenPdf::15                 10163                       # What write queue length does an incoming req see
system.mem_ctrls0.wrQLenPdf::16                 10314                       # What write queue length does an incoming req see
system.mem_ctrls0.wrQLenPdf::17                 10988                       # What write queue length does an incoming req see
system.mem_ctrls0.wrQLenPdf::18                 11071                       # What write queue length does an incoming req see
system.mem_ctrls0.wrQLenPdf::19                 11059                       # What write queue length does an incoming req see
system.mem_ctrls0.wrQLenPdf::20                 11059                       # What write queue length does an incoming req see
system.mem_ctrls0.wrQLenPdf::21                 11058                       # What write queue length does an incoming req see
system.mem_ctrls0.wrQLenPdf::22                 11052                       # What write queue length does an incoming req see
system.mem_ctrls0.wrQLenPdf::23                 11062                       # What write queue length does an incoming req see
system.mem_ctrls0.wrQLenPdf::24                 11062                       # What write queue length does an incoming req see
system.mem_ctrls0.wrQLenPdf::25                 11059                       # What write queue length does an incoming req see
system.mem_ctrls0.wrQLenPdf::26                 11055                       # What write queue length does an incoming req see
system.mem_ctrls0.wrQLenPdf::27                 11055                       # What write queue length does an incoming req see
system.mem_ctrls0.wrQLenPdf::28                 11057                       # What write queue length does an incoming req see
system.mem_ctrls0.wrQLenPdf::29                 11059                       # What write queue length does an incoming req see
system.mem_ctrls0.wrQLenPdf::30                 11042                       # What write queue length does an incoming req see
system.mem_ctrls0.wrQLenPdf::31                 11041                       # What write queue length does an incoming req see
system.mem_ctrls0.wrQLenPdf::32                 11040                       # What write queue length does an incoming req see
system.mem_ctrls0.wrQLenPdf::33                     9                       # What write queue length does an incoming req see
system.mem_ctrls0.wrQLenPdf::34                     0                       # What write queue length does an incoming req see
system.mem_ctrls0.wrQLenPdf::35                     0                       # What write queue length does an incoming req see
system.mem_ctrls0.wrQLenPdf::36                     0                       # What write queue length does an incoming req see
system.mem_ctrls0.wrQLenPdf::37                     0                       # What write queue length does an incoming req see
system.mem_ctrls0.wrQLenPdf::38                     0                       # What write queue length does an incoming req see
system.mem_ctrls0.wrQLenPdf::39                     0                       # What write queue length does an incoming req see
system.mem_ctrls0.wrQLenPdf::40                     0                       # What write queue length does an incoming req see
system.mem_ctrls0.wrQLenPdf::41                     0                       # What write queue length does an incoming req see
system.mem_ctrls0.wrQLenPdf::42                     0                       # What write queue length does an incoming req see
system.mem_ctrls0.wrQLenPdf::43                     0                       # What write queue length does an incoming req see
system.mem_ctrls0.wrQLenPdf::44                     0                       # What write queue length does an incoming req see
system.mem_ctrls0.wrQLenPdf::45                     0                       # What write queue length does an incoming req see
system.mem_ctrls0.wrQLenPdf::46                     0                       # What write queue length does an incoming req see
system.mem_ctrls0.wrQLenPdf::47                     0                       # What write queue length does an incoming req see
system.mem_ctrls0.wrQLenPdf::48                     0                       # What write queue length does an incoming req see
system.mem_ctrls0.wrQLenPdf::49                     0                       # What write queue length does an incoming req see
system.mem_ctrls0.wrQLenPdf::50                     0                       # What write queue length does an incoming req see
system.mem_ctrls0.wrQLenPdf::51                     0                       # What write queue length does an incoming req see
system.mem_ctrls0.wrQLenPdf::52                     0                       # What write queue length does an incoming req see
system.mem_ctrls0.wrQLenPdf::53                     0                       # What write queue length does an incoming req see
system.mem_ctrls0.wrQLenPdf::54                     0                       # What write queue length does an incoming req see
system.mem_ctrls0.wrQLenPdf::55                     0                       # What write queue length does an incoming req see
system.mem_ctrls0.wrQLenPdf::56                     0                       # What write queue length does an incoming req see
system.mem_ctrls0.wrQLenPdf::57                     0                       # What write queue length does an incoming req see
system.mem_ctrls0.wrQLenPdf::58                     0                       # What write queue length does an incoming req see
system.mem_ctrls0.wrQLenPdf::59                     0                       # What write queue length does an incoming req see
system.mem_ctrls0.wrQLenPdf::60                     0                       # What write queue length does an incoming req see
system.mem_ctrls0.wrQLenPdf::61                     0                       # What write queue length does an incoming req see
system.mem_ctrls0.wrQLenPdf::62                     0                       # What write queue length does an incoming req see
system.mem_ctrls0.wrQLenPdf::63                     0                       # What write queue length does an incoming req see
system.mem_ctrls0.bytesPerActivate::samples       389443                       # Bytes accessed per row activation
system.mem_ctrls0.bytesPerActivate::mean   109.250596                       # Bytes accessed per row activation
system.mem_ctrls0.bytesPerActivate::gmean    89.711365                       # Bytes accessed per row activation
system.mem_ctrls0.bytesPerActivate::stdev   109.171137                       # Bytes accessed per row activation
system.mem_ctrls0.bytesPerActivate::0-127       250933     64.43%     64.43% # Bytes accessed per row activation
system.mem_ctrls0.bytesPerActivate::128-255       112506     28.89%     93.32% # Bytes accessed per row activation
system.mem_ctrls0.bytesPerActivate::256-383        16411      4.21%     97.54% # Bytes accessed per row activation
system.mem_ctrls0.bytesPerActivate::384-511         4292      1.10%     98.64% # Bytes accessed per row activation
system.mem_ctrls0.bytesPerActivate::512-639         1126      0.29%     98.93% # Bytes accessed per row activation
system.mem_ctrls0.bytesPerActivate::640-767          794      0.20%     99.13% # Bytes accessed per row activation
system.mem_ctrls0.bytesPerActivate::768-895          422      0.11%     99.24% # Bytes accessed per row activation
system.mem_ctrls0.bytesPerActivate::896-1023          356      0.09%     99.33% # Bytes accessed per row activation
system.mem_ctrls0.bytesPerActivate::1024-1151         2603      0.67%    100.00% # Bytes accessed per row activation
system.mem_ctrls0.bytesPerActivate::total       389443                       # Bytes accessed per row activation
system.mem_ctrls0.rdPerTurnAround::samples        11040                       # Reads before turning the bus around for writes
system.mem_ctrls0.rdPerTurnAround::mean     42.732699                       # Reads before turning the bus around for writes
system.mem_ctrls0.rdPerTurnAround::stdev    62.629203                       # Reads before turning the bus around for writes
system.mem_ctrls0.rdPerTurnAround::0-255        11036     99.96%     99.96% # Reads before turning the bus around for writes
system.mem_ctrls0.rdPerTurnAround::256-511            2      0.02%     99.98% # Reads before turning the bus around for writes
system.mem_ctrls0.rdPerTurnAround::512-767            1      0.01%     99.99% # Reads before turning the bus around for writes
system.mem_ctrls0.rdPerTurnAround::6144-6399            1      0.01%    100.00% # Reads before turning the bus around for writes
system.mem_ctrls0.rdPerTurnAround::total        11040                       # Reads before turning the bus around for writes
system.mem_ctrls0.wrPerTurnAround::samples        11040                       # Writes before turning the bus around for reads
system.mem_ctrls0.wrPerTurnAround::mean     17.870743                       # Writes before turning the bus around for reads
system.mem_ctrls0.wrPerTurnAround::gmean    17.862260                       # Writes before turning the bus around for reads
system.mem_ctrls0.wrPerTurnAround::stdev     0.534908                       # Writes before turning the bus around for reads
system.mem_ctrls0.wrPerTurnAround::16             750      6.79%      6.79% # Writes before turning the bus around for reads
system.mem_ctrls0.wrPerTurnAround::17             127      1.15%      7.94% # Writes before turning the bus around for reads
system.mem_ctrls0.wrPerTurnAround::18            9971     90.32%     98.26% # Writes before turning the bus around for reads
system.mem_ctrls0.wrPerTurnAround::19             184      1.67%     99.93% # Writes before turning the bus around for reads
system.mem_ctrls0.wrPerTurnAround::20               8      0.07%    100.00% # Writes before turning the bus around for reads
system.mem_ctrls0.wrPerTurnAround::total        11040                       # Writes before turning the bus around for reads
system.mem_ctrls0.totQLat                  5352578500                       # Total ticks spent queuing
system.mem_ctrls0.totMemAccLat            14118222250                       # Total ticks spent from burst creation until serviced by the DRAM
system.mem_ctrls0.totBusLat                2337505000                       # Total ticks spent in databus transfers
system.mem_ctrls0.avgQLat                    11449.34                       # Average queueing delay per DRAM burst
system.mem_ctrls0.avgBusLat                   5000.00                       # Average bus latency per DRAM burst
system.mem_ctrls0.avgMemAccLat               30199.34                       # Average memory access latency per DRAM burst
system.mem_ctrls0.avgRdBW                        7.60                       # Average DRAM read bandwidth in MiByte/s
system.mem_ctrls0.avgWrBW                        3.21                       # Average achieved write bandwidth in MiByte/s
system.mem_ctrls0.avgRdBWSys                     7.62                       # Average system read bandwidth in MiByte/s
system.mem_ctrls0.avgWrBWSys                     3.21                       # Average system write bandwidth in MiByte/s
system.mem_ctrls0.peakBW                     12800.00                       # Theoretical peak bandwidth in MiByte/s
system.mem_ctrls0.busUtil                        0.08                       # Data bus utilization in percentage
system.mem_ctrls0.busUtilRead                    0.06                       # Data bus utilization in percentage for reads
system.mem_ctrls0.busUtilWrite                   0.03                       # Data bus utilization in percentage for writes
system.mem_ctrls0.avgRdQLen                      1.00                       # Average read queue length when enqueuing
system.mem_ctrls0.avgWrQLen                     24.52                       # Average write queue length when enqueuing
system.mem_ctrls0.readRowHits                  211286                       # Number of row buffer hits during reads
system.mem_ctrls0.writeRowHits                  64066                       # Number of row buffer hits during writes
system.mem_ctrls0.readRowHitRate                45.19                       # Row buffer hit rate for reads
system.mem_ctrls0.writeRowHitRate               32.47                       # Row buffer hit rate for writes
system.mem_ctrls0.avgGap                   5911878.29                       # Average gap between requests
system.mem_ctrls0.pageHitRate                   41.42                       # Row buffer hit rate, read and write combined
system.mem_ctrls0_0.actEnergy              1509943680                       # Energy for activate commands per rank (pJ)
system.mem_ctrls0_0.preEnergy               823878000                       # Energy for precharge commands per rank (pJ)
system.mem_ctrls0_0.readEnergy             1876867200                       # Energy for read commands per rank (pJ)
system.mem_ctrls0_0.writeEnergy             656838720                       # Energy for write commands per rank (pJ)
system.mem_ctrls0_0.refreshEnergy        257277961200                       # Energy for refresh commands per rank (pJ)
system.mem_ctrls0_0.actBackEnergy        328199183370                       # Energy for active background per rank (pJ)
system.mem_ctrls0_0.preBackEnergy        2075521101750                       # Energy for precharge background per rank (pJ)
system.mem_ctrls0_0.totalEnergy          2665865773920                       # Total energy per rank (pJ)
system.mem_ctrls0_0.averagePower           676.783122                       # Core power per rank (mW)
system.mem_ctrls0_0.memoryStateTime::IDLE 3449346316500                       # Time in different power states
system.mem_ctrls0_0.memoryStateTime::REF 131411800000                       # Time in different power states
system.mem_ctrls0_0.memoryStateTime::PRE_PDN            0                       # Time in different power states
system.mem_ctrls0_0.memoryStateTime::ACT 354639402500                       # Time in different power states
system.mem_ctrls0_0.memoryStateTime::ACT_PDN            0                       # Time in different power states
system.mem_ctrls0_1.actEnergy              1446810120                       # Energy for activate commands per rank (pJ)
system.mem_ctrls0_1.preEnergy               789430125                       # Energy for precharge commands per rank (pJ)
system.mem_ctrls0_1.readEnergy             1803243000                       # Energy for read commands per rank (pJ)
system.mem_ctrls0_1.writeEnergy             621619920                       # Energy for write commands per rank (pJ)
system.mem_ctrls0_1.refreshEnergy        257277961200                       # Energy for refresh commands per rank (pJ)
system.mem_ctrls0_1.actBackEnergy        323183435310                       # Energy for active background per rank (pJ)
system.mem_ctrls0_1.preBackEnergy        2079920880750                       # Energy for precharge background per rank (pJ)
system.mem_ctrls0_1.totalEnergy          2665043380425                       # Total energy per rank (pJ)
system.mem_ctrls0_1.averagePower           676.574341                       # Core power per rank (mW)
system.mem_ctrls0_1.memoryStateTime::IDLE 3456824206000                       # Time in different power states
system.mem_ctrls0_1.memoryStateTime::REF 131411800000                       # Time in different power states
system.mem_ctrls0_1.memoryStateTime::PRE_PDN            0                       # Time in different power states
system.mem_ctrls0_1.memoryStateTime::ACT 347168331500                       # Time in different power states
system.mem_ctrls0_1.memoryStateTime::ACT_PDN            0                       # Time in different power states
system.mem_ctrls1.bytes_read::ruby.dir_cntrl1     29837760                       # Number of bytes read from this memory
system.mem_ctrls1.bytes_read::total          29837760                       # Number of bytes read from this memory
system.mem_ctrls1.bytes_written::ruby.dir_cntrl1     12587136                       # Number of bytes written to this memory
system.mem_ctrls1.bytes_written::total       12587136                       # Number of bytes written to this memory
system.mem_ctrls1.num_reads::ruby.dir_cntrl1       466215                       # Number of read requests responded to by this memory
system.mem_ctrls1.num_reads::total             466215                       # Number of read requests responded to by this memory
system.mem_ctrls1.num_writes::ruby.dir_cntrl1       196674                       # Number of write requests responded to by this memory
system.mem_ctrls1.num_writes::total            196674                       # Number of write requests responded to by this memory
system.mem_ctrls1.bw_read::ruby.dir_cntrl1      7581882                       # Total read bandwidth from this memory (bytes/s)
system.mem_ctrls1.bw_read::total              7581882                       # Total read bandwidth from this memory (bytes/s)
system.mem_ctrls1.bw_write::ruby.dir_cntrl1      3198436                       # Write bandwidth from this memory (bytes/s)
system.mem_ctrls1.bw_write::total             3198436                       # Write bandwidth from this memory (bytes/s)
system.mem_ctrls1.bw_total::ruby.dir_cntrl1     10780318                       # Total bandwidth to/from this memory (bytes/s)
system.mem_ctrls1.bw_total::total            10780318                       # Total bandwidth to/from this memory (bytes/s)
system.mem_ctrls1.readReqs                     466215                       # Number of read requests accepted
system.mem_ctrls1.writeReqs                    196674                       # Number of write requests accepted
system.mem_ctrls1.readBursts                   466215                       # Number of DRAM read bursts, including those serviced by the write queue
system.mem_ctrls1.writeBursts                  196674                       # Number of DRAM write bursts, including those merged in the write queue
system.mem_ctrls1.bytesReadDRAM              29783168                       # Total number of bytes read from DRAM
system.mem_ctrls1.bytesReadWrQ                  54592                       # Total number of bytes read from write queue
system.mem_ctrls1.bytesWritten               12585472                       # Total number of bytes written to DRAM
system.mem_ctrls1.bytesReadSys               29837760                       # Total read bytes from the system interface side
system.mem_ctrls1.bytesWrittenSys            12587136                       # Total written bytes from the system interface side
system.mem_ctrls1.servicedByWrQ                   853                       # Number of DRAM read bursts serviced by the write queue
system.mem_ctrls1.mergedWrBursts                    0                       # Number of DRAM write bursts merged with an existing one
system.mem_ctrls1.neitherReadNorWriteReqs            0                       # Number of requests that are neither read nor write
system.mem_ctrls1.perBankRdBursts::0            33842                       # Per bank write bursts
system.mem_ctrls1.perBankRdBursts::1            34338                       # Per bank write bursts
system.mem_ctrls1.perBankRdBursts::2            34814                       # Per bank write bursts
system.mem_ctrls1.perBankRdBursts::3            27934                       # Per bank write bursts
system.mem_ctrls1.perBankRdBursts::4            26212                       # Per bank write bursts
system.mem_ctrls1.perBankRdBursts::5            26499                       # Per bank write bursts
system.mem_ctrls1.perBankRdBursts::6            25298                       # Per bank write bursts
system.mem_ctrls1.perBankRdBursts::7            28619                       # Per bank write bursts
system.mem_ctrls1.perBankRdBursts::8            27108                       # Per bank write bursts
system.mem_ctrls1.perBankRdBursts::9            30088                       # Per bank write bursts
system.mem_ctrls1.perBankRdBursts::10           29991                       # Per bank write bursts
system.mem_ctrls1.perBankRdBursts::11           27816                       # Per bank write bursts
system.mem_ctrls1.perBankRdBursts::12           26786                       # Per bank write bursts
system.mem_ctrls1.perBankRdBursts::13           27392                       # Per bank write bursts
system.mem_ctrls1.perBankRdBursts::14           26164                       # Per bank write bursts
system.mem_ctrls1.perBankRdBursts::15           32461                       # Per bank write bursts
system.mem_ctrls1.perBankWrBursts::0            14184                       # Per bank write bursts
system.mem_ctrls1.perBankWrBursts::1            14173                       # Per bank write bursts
system.mem_ctrls1.perBankWrBursts::2            14346                       # Per bank write bursts
system.mem_ctrls1.perBankWrBursts::3            12212                       # Per bank write bursts
system.mem_ctrls1.perBankWrBursts::4            11311                       # Per bank write bursts
system.mem_ctrls1.perBankWrBursts::5            11420                       # Per bank write bursts
system.mem_ctrls1.perBankWrBursts::6            10998                       # Per bank write bursts
system.mem_ctrls1.perBankWrBursts::7            12174                       # Per bank write bursts
system.mem_ctrls1.perBankWrBursts::8            11308                       # Per bank write bursts
system.mem_ctrls1.perBankWrBursts::9            12738                       # Per bank write bursts
system.mem_ctrls1.perBankWrBursts::10           12287                       # Per bank write bursts
system.mem_ctrls1.perBankWrBursts::11           11684                       # Per bank write bursts
system.mem_ctrls1.perBankWrBursts::12           11484                       # Per bank write bursts
system.mem_ctrls1.perBankWrBursts::13           11731                       # Per bank write bursts
system.mem_ctrls1.perBankWrBursts::14           11224                       # Per bank write bursts
system.mem_ctrls1.perBankWrBursts::15           13374                       # Per bank write bursts
system.mem_ctrls1.numRdRetry                        0                       # Number of times read queue was full causing retry
system.mem_ctrls1.numWrRetry                        0                       # Number of times write queue was full causing retry
system.mem_ctrls1.totGap                 3935404173500                       # Total gap between requests
system.mem_ctrls1.readPktSize::0                    0                       # Read request sizes (log2)
system.mem_ctrls1.readPktSize::1                    0                       # Read request sizes (log2)
system.mem_ctrls1.readPktSize::2                    0                       # Read request sizes (log2)
system.mem_ctrls1.readPktSize::3                    0                       # Read request sizes (log2)
system.mem_ctrls1.readPktSize::4                    0                       # Read request sizes (log2)
system.mem_ctrls1.readPktSize::5                    0                       # Read request sizes (log2)
system.mem_ctrls1.readPktSize::6               466215                       # Read request sizes (log2)
system.mem_ctrls1.writePktSize::0                   0                       # Write request sizes (log2)
system.mem_ctrls1.writePktSize::1                   0                       # Write request sizes (log2)
system.mem_ctrls1.writePktSize::2                   0                       # Write request sizes (log2)
system.mem_ctrls1.writePktSize::3                   0                       # Write request sizes (log2)
system.mem_ctrls1.writePktSize::4                   0                       # Write request sizes (log2)
system.mem_ctrls1.writePktSize::5                   0                       # Write request sizes (log2)
system.mem_ctrls1.writePktSize::6              196674                       # Write request sizes (log2)
system.mem_ctrls1.rdQLenPdf::0                 465289                       # What read queue length does an incoming req see
system.mem_ctrls1.rdQLenPdf::1                     73                       # What read queue length does an incoming req see
system.mem_ctrls1.rdQLenPdf::2                      0                       # What read queue length does an incoming req see
system.mem_ctrls1.rdQLenPdf::3                      0                       # What read queue length does an incoming req see
system.mem_ctrls1.rdQLenPdf::4                      0                       # What read queue length does an incoming req see
system.mem_ctrls1.rdQLenPdf::5                      0                       # What read queue length does an incoming req see
system.mem_ctrls1.rdQLenPdf::6                      0                       # What read queue length does an incoming req see
system.mem_ctrls1.rdQLenPdf::7                      0                       # What read queue length does an incoming req see
system.mem_ctrls1.rdQLenPdf::8                      0                       # What read queue length does an incoming req see
system.mem_ctrls1.rdQLenPdf::9                      0                       # What read queue length does an incoming req see
system.mem_ctrls1.rdQLenPdf::10                     0                       # What read queue length does an incoming req see
system.mem_ctrls1.rdQLenPdf::11                     0                       # What read queue length does an incoming req see
system.mem_ctrls1.rdQLenPdf::12                     0                       # What read queue length does an incoming req see
system.mem_ctrls1.rdQLenPdf::13                     0                       # What read queue length does an incoming req see
system.mem_ctrls1.rdQLenPdf::14                     0                       # What read queue length does an incoming req see
system.mem_ctrls1.rdQLenPdf::15                     0                       # What read queue length does an incoming req see
system.mem_ctrls1.rdQLenPdf::16                     0                       # What read queue length does an incoming req see
system.mem_ctrls1.rdQLenPdf::17                     0                       # What read queue length does an incoming req see
system.mem_ctrls1.rdQLenPdf::18                     0                       # What read queue length does an incoming req see
system.mem_ctrls1.rdQLenPdf::19                     0                       # What read queue length does an incoming req see
system.mem_ctrls1.rdQLenPdf::20                     0                       # What read queue length does an incoming req see
system.mem_ctrls1.rdQLenPdf::21                     0                       # What read queue length does an incoming req see
system.mem_ctrls1.rdQLenPdf::22                     0                       # What read queue length does an incoming req see
system.mem_ctrls1.rdQLenPdf::23                     0                       # What read queue length does an incoming req see
system.mem_ctrls1.rdQLenPdf::24                     0                       # What read queue length does an incoming req see
system.mem_ctrls1.rdQLenPdf::25                     0                       # What read queue length does an incoming req see
system.mem_ctrls1.rdQLenPdf::26                     0                       # What read queue length does an incoming req see
system.mem_ctrls1.rdQLenPdf::27                     0                       # What read queue length does an incoming req see
system.mem_ctrls1.rdQLenPdf::28                     0                       # What read queue length does an incoming req see
system.mem_ctrls1.rdQLenPdf::29                     0                       # What read queue length does an incoming req see
system.mem_ctrls1.rdQLenPdf::30                     0                       # What read queue length does an incoming req see
system.mem_ctrls1.rdQLenPdf::31                     0                       # What read queue length does an incoming req see
system.mem_ctrls1.wrQLenPdf::0                      1                       # What write queue length does an incoming req see
system.mem_ctrls1.wrQLenPdf::1                      1                       # What write queue length does an incoming req see
system.mem_ctrls1.wrQLenPdf::2                      1                       # What write queue length does an incoming req see
system.mem_ctrls1.wrQLenPdf::3                      1                       # What write queue length does an incoming req see
system.mem_ctrls1.wrQLenPdf::4                      1                       # What write queue length does an incoming req see
system.mem_ctrls1.wrQLenPdf::5                      1                       # What write queue length does an incoming req see
system.mem_ctrls1.wrQLenPdf::6                      1                       # What write queue length does an incoming req see
system.mem_ctrls1.wrQLenPdf::7                      1                       # What write queue length does an incoming req see
system.mem_ctrls1.wrQLenPdf::8                      1                       # What write queue length does an incoming req see
system.mem_ctrls1.wrQLenPdf::9                      1                       # What write queue length does an incoming req see
system.mem_ctrls1.wrQLenPdf::10                     1                       # What write queue length does an incoming req see
system.mem_ctrls1.wrQLenPdf::11                     1                       # What write queue length does an incoming req see
system.mem_ctrls1.wrQLenPdf::12                     1                       # What write queue length does an incoming req see
system.mem_ctrls1.wrQLenPdf::13                     1                       # What write queue length does an incoming req see
system.mem_ctrls1.wrQLenPdf::14                     1                       # What write queue length does an incoming req see
system.mem_ctrls1.wrQLenPdf::15                 10141                       # What write queue length does an incoming req see
system.mem_ctrls1.wrQLenPdf::16                 10303                       # What write queue length does an incoming req see
system.mem_ctrls1.wrQLenPdf::17                 10970                       # What write queue length does an incoming req see
system.mem_ctrls1.wrQLenPdf::18                 11021                       # What write queue length does an incoming req see
system.mem_ctrls1.wrQLenPdf::19                 11020                       # What write queue length does an incoming req see
system.mem_ctrls1.wrQLenPdf::20                 11019                       # What write queue length does an incoming req see
system.mem_ctrls1.wrQLenPdf::21                 11020                       # What write queue length does an incoming req see
system.mem_ctrls1.wrQLenPdf::22                 11021                       # What write queue length does an incoming req see
system.mem_ctrls1.wrQLenPdf::23                 11019                       # What write queue length does an incoming req see
system.mem_ctrls1.wrQLenPdf::24                 11014                       # What write queue length does an incoming req see
system.mem_ctrls1.wrQLenPdf::25                 11022                       # What write queue length does an incoming req see
system.mem_ctrls1.wrQLenPdf::26                 11017                       # What write queue length does an incoming req see
system.mem_ctrls1.wrQLenPdf::27                 11013                       # What write queue length does an incoming req see
system.mem_ctrls1.wrQLenPdf::28                 11016                       # What write queue length does an incoming req see
system.mem_ctrls1.wrQLenPdf::29                 11015                       # What write queue length does an incoming req see
system.mem_ctrls1.wrQLenPdf::30                 11006                       # What write queue length does an incoming req see
system.mem_ctrls1.wrQLenPdf::31                 11005                       # What write queue length does an incoming req see
system.mem_ctrls1.wrQLenPdf::32                 11004                       # What write queue length does an incoming req see
system.mem_ctrls1.wrQLenPdf::33                    11                       # What write queue length does an incoming req see
system.mem_ctrls1.wrQLenPdf::34                     2                       # What write queue length does an incoming req see
system.mem_ctrls1.wrQLenPdf::35                     0                       # What write queue length does an incoming req see
system.mem_ctrls1.wrQLenPdf::36                     0                       # What write queue length does an incoming req see
system.mem_ctrls1.wrQLenPdf::37                     0                       # What write queue length does an incoming req see
system.mem_ctrls1.wrQLenPdf::38                     0                       # What write queue length does an incoming req see
system.mem_ctrls1.wrQLenPdf::39                     0                       # What write queue length does an incoming req see
system.mem_ctrls1.wrQLenPdf::40                     0                       # What write queue length does an incoming req see
system.mem_ctrls1.wrQLenPdf::41                     0                       # What write queue length does an incoming req see
system.mem_ctrls1.wrQLenPdf::42                     0                       # What write queue length does an incoming req see
system.mem_ctrls1.wrQLenPdf::43                     0                       # What write queue length does an incoming req see
system.mem_ctrls1.wrQLenPdf::44                     0                       # What write queue length does an incoming req see
system.mem_ctrls1.wrQLenPdf::45                     0                       # What write queue length does an incoming req see
system.mem_ctrls1.wrQLenPdf::46                     0                       # What write queue length does an incoming req see
system.mem_ctrls1.wrQLenPdf::47                     0                       # What write queue length does an incoming req see
system.mem_ctrls1.wrQLenPdf::48                     0                       # What write queue length does an incoming req see
system.mem_ctrls1.wrQLenPdf::49                     0                       # What write queue length does an incoming req see
system.mem_ctrls1.wrQLenPdf::50                     0                       # What write queue length does an incoming req see
system.mem_ctrls1.wrQLenPdf::51                     0                       # What write queue length does an incoming req see
system.mem_ctrls1.wrQLenPdf::52                     0                       # What write queue length does an incoming req see
system.mem_ctrls1.wrQLenPdf::53                     0                       # What write queue length does an incoming req see
system.mem_ctrls1.wrQLenPdf::54                     0                       # What write queue length does an incoming req see
system.mem_ctrls1.wrQLenPdf::55                     0                       # What write queue length does an incoming req see
system.mem_ctrls1.wrQLenPdf::56                     0                       # What write queue length does an incoming req see
system.mem_ctrls1.wrQLenPdf::57                     0                       # What write queue length does an incoming req see
system.mem_ctrls1.wrQLenPdf::58                     0                       # What write queue length does an incoming req see
system.mem_ctrls1.wrQLenPdf::59                     0                       # What write queue length does an incoming req see
system.mem_ctrls1.wrQLenPdf::60                     0                       # What write queue length does an incoming req see
system.mem_ctrls1.wrQLenPdf::61                     0                       # What write queue length does an incoming req see
system.mem_ctrls1.wrQLenPdf::62                     0                       # What write queue length does an incoming req see
system.mem_ctrls1.wrQLenPdf::63                     0                       # What write queue length does an incoming req see
system.mem_ctrls1.bytesPerActivate::samples       387590                       # Bytes accessed per row activation
system.mem_ctrls1.bytesPerActivate::mean   109.313037                       # Bytes accessed per row activation
system.mem_ctrls1.bytesPerActivate::gmean    89.673746                       # Bytes accessed per row activation
system.mem_ctrls1.bytesPerActivate::stdev   109.797338                       # Bytes accessed per row activation
system.mem_ctrls1.bytesPerActivate::0-127       250039     64.51%     64.51% # Bytes accessed per row activation
system.mem_ctrls1.bytesPerActivate::128-255       111558     28.78%     93.29% # Bytes accessed per row activation
system.mem_ctrls1.bytesPerActivate::256-383        16293      4.20%     97.50% # Bytes accessed per row activation
system.mem_ctrls1.bytesPerActivate::384-511         4392      1.13%     98.63% # Bytes accessed per row activation
system.mem_ctrls1.bytesPerActivate::512-639         1127      0.29%     98.92% # Bytes accessed per row activation
system.mem_ctrls1.bytesPerActivate::640-767          741      0.19%     99.11% # Bytes accessed per row activation
system.mem_ctrls1.bytesPerActivate::768-895          435      0.11%     99.22% # Bytes accessed per row activation
system.mem_ctrls1.bytesPerActivate::896-1023          345      0.09%     99.31% # Bytes accessed per row activation
system.mem_ctrls1.bytesPerActivate::1024-1151         2660      0.69%    100.00% # Bytes accessed per row activation
system.mem_ctrls1.bytesPerActivate::total       387590                       # Bytes accessed per row activation
system.mem_ctrls1.rdPerTurnAround::samples        11004                       # Reads before turning the bus around for writes
system.mem_ctrls1.rdPerTurnAround::mean     42.671120                       # Reads before turning the bus around for writes
system.mem_ctrls1.rdPerTurnAround::stdev    62.456912                       # Reads before turning the bus around for writes
system.mem_ctrls1.rdPerTurnAround::0-255        11000     99.96%     99.96% # Reads before turning the bus around for writes
system.mem_ctrls1.rdPerTurnAround::256-511            2      0.02%     99.98% # Reads before turning the bus around for writes
system.mem_ctrls1.rdPerTurnAround::512-767            1      0.01%     99.99% # Reads before turning the bus around for writes
system.mem_ctrls1.rdPerTurnAround::6144-6399            1      0.01%    100.00% # Reads before turning the bus around for writes
system.mem_ctrls1.rdPerTurnAround::total        11004                       # Reads before turning the bus around for writes
system.mem_ctrls1.wrPerTurnAround::samples        11004                       # Writes before turning the bus around for reads
system.mem_ctrls1.wrPerTurnAround::mean     17.870593                       # Writes before turning the bus around for reads
system.mem_ctrls1.wrPerTurnAround::gmean    17.862536                       # Writes before turning the bus around for reads
system.mem_ctrls1.wrPerTurnAround::stdev     0.521092                       # Writes before turning the bus around for reads
system.mem_ctrls1.wrPerTurnAround::16             712      6.47%      6.47% # Writes before turning the bus around for reads
system.mem_ctrls1.wrPerTurnAround::17             152      1.38%      7.85% # Writes before turning the bus around for reads
system.mem_ctrls1.wrPerTurnAround::18            9998     90.86%     98.71% # Writes before turning the bus around for reads
system.mem_ctrls1.wrPerTurnAround::19             132      1.20%     99.91% # Writes before turning the bus around for reads
system.mem_ctrls1.wrPerTurnAround::20              10      0.09%    100.00% # Writes before turning the bus around for reads
system.mem_ctrls1.wrPerTurnAround::total        11004                       # Writes before turning the bus around for reads
system.mem_ctrls1.totQLat                  5341142000                       # Total ticks spent queuing
system.mem_ctrls1.totMemAccLat            14066679500                       # Total ticks spent from burst creation until serviced by the DRAM
system.mem_ctrls1.totBusLat                2326810000                       # Total ticks spent in databus transfers
system.mem_ctrls1.avgQLat                    11477.39                       # Average queueing delay per DRAM burst
system.mem_ctrls1.avgBusLat                   5000.00                       # Average bus latency per DRAM burst
system.mem_ctrls1.avgMemAccLat               30227.39                       # Average memory access latency per DRAM burst
system.mem_ctrls1.avgRdBW                        7.57                       # Average DRAM read bandwidth in MiByte/s
system.mem_ctrls1.avgWrBW                        3.20                       # Average achieved write bandwidth in MiByte/s
system.mem_ctrls1.avgRdBWSys                     7.58                       # Average system read bandwidth in MiByte/s
system.mem_ctrls1.avgWrBWSys                     3.20                       # Average system write bandwidth in MiByte/s
system.mem_ctrls1.peakBW                     12800.00                       # Theoretical peak bandwidth in MiByte/s
system.mem_ctrls1.busUtil                        0.08                       # Data bus utilization in percentage
system.mem_ctrls1.busUtilRead                    0.06                       # Data bus utilization in percentage for reads
system.mem_ctrls1.busUtilWrite                   0.02                       # Data bus utilization in percentage for writes
system.mem_ctrls1.avgRdQLen                      1.00                       # Average read queue length when enqueuing
system.mem_ctrls1.avgWrQLen                     24.55                       # Average write queue length when enqueuing
system.mem_ctrls1.readRowHits                  210433                       # Number of row buffer hits during reads
system.mem_ctrls1.writeRowHits                  63987                       # Number of row buffer hits during writes
system.mem_ctrls1.readRowHitRate                45.22                       # Row buffer hit rate for reads
system.mem_ctrls1.writeRowHitRate               32.53                       # Row buffer hit rate for writes
system.mem_ctrls1.avgGap                   5936746.84                       # Average gap between requests
system.mem_ctrls1.pageHitRate                   41.45                       # Row buffer hit rate, read and write combined
system.mem_ctrls1_0.actEnergy              1504402200                       # Energy for activate commands per rank (pJ)
system.mem_ctrls1_0.preEnergy               820854375                       # Energy for precharge commands per rank (pJ)
system.mem_ctrls1_0.readEnergy             1868505600                       # Energy for read commands per rank (pJ)
system.mem_ctrls1_0.writeEnergy             653300640                       # Energy for write commands per rank (pJ)
system.mem_ctrls1_0.refreshEnergy        257277961200                       # Energy for refresh commands per rank (pJ)
system.mem_ctrls1_0.actBackEnergy        328735998540                       # Energy for active background per rank (pJ)
system.mem_ctrls1_0.preBackEnergy        2075050211250                       # Energy for precharge background per rank (pJ)
system.mem_ctrls1_0.totalEnergy          2665911233805                       # Total energy per rank (pJ)
system.mem_ctrls1_0.averagePower           676.794663                       # Core power per rank (mW)
system.mem_ctrls1_0.memoryStateTime::IDLE 3448578398750                       # Time in different power states
system.mem_ctrls1_0.memoryStateTime::REF 131411800000                       # Time in different power states
system.mem_ctrls1_0.memoryStateTime::PRE_PDN            0                       # Time in different power states
system.mem_ctrls1_0.memoryStateTime::ACT 355413974750                       # Time in different power states
system.mem_ctrls1_0.memoryStateTime::ACT_PDN            0                       # Time in different power states
system.mem_ctrls1_1.actEnergy              1438101000                       # Energy for activate commands per rank (pJ)
system.mem_ctrls1_1.preEnergy               784678125                       # Energy for precharge commands per rank (pJ)
system.mem_ctrls1_1.readEnergy             1794280800                       # Energy for read commands per rank (pJ)
system.mem_ctrls1_1.writeEnergy             620978400                       # Energy for write commands per rank (pJ)
system.mem_ctrls1_1.refreshEnergy        257277961200                       # Energy for refresh commands per rank (pJ)
system.mem_ctrls1_1.actBackEnergy        322255076310                       # Energy for active background per rank (pJ)
system.mem_ctrls1_1.preBackEnergy        2080735230750                       # Energy for precharge background per rank (pJ)
system.mem_ctrls1_1.totalEnergy          2664906306585                       # Total energy per rank (pJ)
system.mem_ctrls1_1.averagePower           676.539542                       # Core power per rank (mW)
system.mem_ctrls1_1.memoryStateTime::IDLE 3458218290750                       # Time in different power states
system.mem_ctrls1_1.memoryStateTime::REF 131411800000                       # Time in different power states
system.mem_ctrls1_1.memoryStateTime::PRE_PDN            0                       # Time in different power states
system.mem_ctrls1_1.memoryStateTime::ACT 345774246750                       # Time in different power states
system.mem_ctrls1_1.memoryStateTime::ACT_PDN            0                       # Time in different power states
system.mem_ctrls2.bytes_read::ruby.dir_cntrl2     29819648                       # Number of bytes read from this memory
system.mem_ctrls2.bytes_read::total          29819648                       # Number of bytes read from this memory
system.mem_ctrls2.bytes_written::ruby.dir_cntrl2     12567360                       # Number of bytes written to this memory
system.mem_ctrls2.bytes_written::total       12567360                       # Number of bytes written to this memory
system.mem_ctrls2.num_reads::ruby.dir_cntrl2       465932                       # Number of read requests responded to by this memory
system.mem_ctrls2.num_reads::total             465932                       # Number of read requests responded to by this memory
system.mem_ctrls2.num_writes::ruby.dir_cntrl2       196365                       # Number of write requests responded to by this memory
system.mem_ctrls2.num_writes::total            196365                       # Number of write requests responded to by this memory
system.mem_ctrls2.bw_read::ruby.dir_cntrl2      7577280                       # Total read bandwidth from this memory (bytes/s)
system.mem_ctrls2.bw_read::total              7577280                       # Total read bandwidth from this memory (bytes/s)
system.mem_ctrls2.bw_write::ruby.dir_cntrl2      3193411                       # Write bandwidth from this memory (bytes/s)
system.mem_ctrls2.bw_write::total             3193411                       # Write bandwidth from this memory (bytes/s)
system.mem_ctrls2.bw_total::ruby.dir_cntrl2     10770691                       # Total bandwidth to/from this memory (bytes/s)
system.mem_ctrls2.bw_total::total            10770691                       # Total bandwidth to/from this memory (bytes/s)
system.mem_ctrls2.readReqs                     465932                       # Number of read requests accepted
system.mem_ctrls2.writeReqs                    196365                       # Number of write requests accepted
system.mem_ctrls2.readBursts                   465932                       # Number of DRAM read bursts, including those serviced by the write queue
system.mem_ctrls2.writeBursts                  196365                       # Number of DRAM write bursts, including those merged in the write queue
system.mem_ctrls2.bytesReadDRAM              29768384                       # Total number of bytes read from DRAM
system.mem_ctrls2.bytesReadWrQ                  51264                       # Total number of bytes read from write queue
system.mem_ctrls2.bytesWritten               12566336                       # Total number of bytes written to DRAM
system.mem_ctrls2.bytesReadSys               29819648                       # Total read bytes from the system interface side
system.mem_ctrls2.bytesWrittenSys            12567360                       # Total written bytes from the system interface side
system.mem_ctrls2.servicedByWrQ                   801                       # Number of DRAM read bursts serviced by the write queue
system.mem_ctrls2.mergedWrBursts                    0                       # Number of DRAM write bursts merged with an existing one
system.mem_ctrls2.neitherReadNorWriteReqs            0                       # Number of requests that are neither read nor write
system.mem_ctrls2.perBankRdBursts::0            33540                       # Per bank write bursts
system.mem_ctrls2.perBankRdBursts::1            34517                       # Per bank write bursts
system.mem_ctrls2.perBankRdBursts::2            34394                       # Per bank write bursts
system.mem_ctrls2.perBankRdBursts::3            27795                       # Per bank write bursts
system.mem_ctrls2.perBankRdBursts::4            26298                       # Per bank write bursts
system.mem_ctrls2.perBankRdBursts::5            26769                       # Per bank write bursts
system.mem_ctrls2.perBankRdBursts::6            25152                       # Per bank write bursts
system.mem_ctrls2.perBankRdBursts::7            28731                       # Per bank write bursts
system.mem_ctrls2.perBankRdBursts::8            27113                       # Per bank write bursts
system.mem_ctrls2.perBankRdBursts::9            30082                       # Per bank write bursts
system.mem_ctrls2.perBankRdBursts::10           30463                       # Per bank write bursts
system.mem_ctrls2.perBankRdBursts::11           27302                       # Per bank write bursts
system.mem_ctrls2.perBankRdBursts::12           26997                       # Per bank write bursts
system.mem_ctrls2.perBankRdBursts::13           27169                       # Per bank write bursts
system.mem_ctrls2.perBankRdBursts::14           26381                       # Per bank write bursts
system.mem_ctrls2.perBankRdBursts::15           32428                       # Per bank write bursts
system.mem_ctrls2.perBankWrBursts::0            14073                       # Per bank write bursts
system.mem_ctrls2.perBankWrBursts::1            14186                       # Per bank write bursts
system.mem_ctrls2.perBankWrBursts::2            14334                       # Per bank write bursts
system.mem_ctrls2.perBankWrBursts::3            12102                       # Per bank write bursts
system.mem_ctrls2.perBankWrBursts::4            11347                       # Per bank write bursts
system.mem_ctrls2.perBankWrBursts::5            11476                       # Per bank write bursts
system.mem_ctrls2.perBankWrBursts::6            10861                       # Per bank write bursts
system.mem_ctrls2.perBankWrBursts::7            12275                       # Per bank write bursts
system.mem_ctrls2.perBankWrBursts::8            11304                       # Per bank write bursts
system.mem_ctrls2.perBankWrBursts::9            12736                       # Per bank write bursts
system.mem_ctrls2.perBankWrBursts::10           12346                       # Per bank write bursts
system.mem_ctrls2.perBankWrBursts::11           11585                       # Per bank write bursts
system.mem_ctrls2.perBankWrBursts::12           11440                       # Per bank write bursts
system.mem_ctrls2.perBankWrBursts::13           11667                       # Per bank write bursts
system.mem_ctrls2.perBankWrBursts::14           11245                       # Per bank write bursts
system.mem_ctrls2.perBankWrBursts::15           13372                       # Per bank write bursts
system.mem_ctrls2.numRdRetry                        0                       # Number of times read queue was full causing retry
system.mem_ctrls2.numWrRetry                        0                       # Number of times write queue was full causing retry
system.mem_ctrls2.totGap                 3935408454000                       # Total gap between requests
system.mem_ctrls2.readPktSize::0                    0                       # Read request sizes (log2)
system.mem_ctrls2.readPktSize::1                    0                       # Read request sizes (log2)
system.mem_ctrls2.readPktSize::2                    0                       # Read request sizes (log2)
system.mem_ctrls2.readPktSize::3                    0                       # Read request sizes (log2)
system.mem_ctrls2.readPktSize::4                    0                       # Read request sizes (log2)
system.mem_ctrls2.readPktSize::5                    0                       # Read request sizes (log2)
system.mem_ctrls2.readPktSize::6               465932                       # Read request sizes (log2)
system.mem_ctrls2.writePktSize::0                   0                       # Write request sizes (log2)
system.mem_ctrls2.writePktSize::1                   0                       # Write request sizes (log2)
system.mem_ctrls2.writePktSize::2                   0                       # Write request sizes (log2)
system.mem_ctrls2.writePktSize::3                   0                       # Write request sizes (log2)
system.mem_ctrls2.writePktSize::4                   0                       # Write request sizes (log2)
system.mem_ctrls2.writePktSize::5                   0                       # Write request sizes (log2)
system.mem_ctrls2.writePktSize::6              196365                       # Write request sizes (log2)
system.mem_ctrls2.rdQLenPdf::0                 465066                       # What read queue length does an incoming req see
system.mem_ctrls2.rdQLenPdf::1                     65                       # What read queue length does an incoming req see
system.mem_ctrls2.rdQLenPdf::2                      0                       # What read queue length does an incoming req see
system.mem_ctrls2.rdQLenPdf::3                      0                       # What read queue length does an incoming req see
system.mem_ctrls2.rdQLenPdf::4                      0                       # What read queue length does an incoming req see
system.mem_ctrls2.rdQLenPdf::5                      0                       # What read queue length does an incoming req see
system.mem_ctrls2.rdQLenPdf::6                      0                       # What read queue length does an incoming req see
system.mem_ctrls2.rdQLenPdf::7                      0                       # What read queue length does an incoming req see
system.mem_ctrls2.rdQLenPdf::8                      0                       # What read queue length does an incoming req see
system.mem_ctrls2.rdQLenPdf::9                      0                       # What read queue length does an incoming req see
system.mem_ctrls2.rdQLenPdf::10                     0                       # What read queue length does an incoming req see
system.mem_ctrls2.rdQLenPdf::11                     0                       # What read queue length does an incoming req see
system.mem_ctrls2.rdQLenPdf::12                     0                       # What read queue length does an incoming req see
system.mem_ctrls2.rdQLenPdf::13                     0                       # What read queue length does an incoming req see
system.mem_ctrls2.rdQLenPdf::14                     0                       # What read queue length does an incoming req see
system.mem_ctrls2.rdQLenPdf::15                     0                       # What read queue length does an incoming req see
system.mem_ctrls2.rdQLenPdf::16                     0                       # What read queue length does an incoming req see
system.mem_ctrls2.rdQLenPdf::17                     0                       # What read queue length does an incoming req see
system.mem_ctrls2.rdQLenPdf::18                     0                       # What read queue length does an incoming req see
system.mem_ctrls2.rdQLenPdf::19                     0                       # What read queue length does an incoming req see
system.mem_ctrls2.rdQLenPdf::20                     0                       # What read queue length does an incoming req see
system.mem_ctrls2.rdQLenPdf::21                     0                       # What read queue length does an incoming req see
system.mem_ctrls2.rdQLenPdf::22                     0                       # What read queue length does an incoming req see
system.mem_ctrls2.rdQLenPdf::23                     0                       # What read queue length does an incoming req see
system.mem_ctrls2.rdQLenPdf::24                     0                       # What read queue length does an incoming req see
system.mem_ctrls2.rdQLenPdf::25                     0                       # What read queue length does an incoming req see
system.mem_ctrls2.rdQLenPdf::26                     0                       # What read queue length does an incoming req see
system.mem_ctrls2.rdQLenPdf::27                     0                       # What read queue length does an incoming req see
system.mem_ctrls2.rdQLenPdf::28                     0                       # What read queue length does an incoming req see
system.mem_ctrls2.rdQLenPdf::29                     0                       # What read queue length does an incoming req see
system.mem_ctrls2.rdQLenPdf::30                     0                       # What read queue length does an incoming req see
system.mem_ctrls2.rdQLenPdf::31                     0                       # What read queue length does an incoming req see
system.mem_ctrls2.wrQLenPdf::0                      0                       # What write queue length does an incoming req see
system.mem_ctrls2.wrQLenPdf::1                      0                       # What write queue length does an incoming req see
system.mem_ctrls2.wrQLenPdf::2                      1                       # What write queue length does an incoming req see
system.mem_ctrls2.wrQLenPdf::3                      1                       # What write queue length does an incoming req see
system.mem_ctrls2.wrQLenPdf::4                      1                       # What write queue length does an incoming req see
system.mem_ctrls2.wrQLenPdf::5                      1                       # What write queue length does an incoming req see
system.mem_ctrls2.wrQLenPdf::6                      1                       # What write queue length does an incoming req see
system.mem_ctrls2.wrQLenPdf::7                      1                       # What write queue length does an incoming req see
system.mem_ctrls2.wrQLenPdf::8                      1                       # What write queue length does an incoming req see
system.mem_ctrls2.wrQLenPdf::9                      1                       # What write queue length does an incoming req see
system.mem_ctrls2.wrQLenPdf::10                     1                       # What write queue length does an incoming req see
system.mem_ctrls2.wrQLenPdf::11                     1                       # What write queue length does an incoming req see
system.mem_ctrls2.wrQLenPdf::12                     1                       # What write queue length does an incoming req see
system.mem_ctrls2.wrQLenPdf::13                     1                       # What write queue length does an incoming req see
system.mem_ctrls2.wrQLenPdf::14                     1                       # What write queue length does an incoming req see
system.mem_ctrls2.wrQLenPdf::15                 10178                       # What write queue length does an incoming req see
system.mem_ctrls2.wrQLenPdf::16                 10305                       # What write queue length does an incoming req see
system.mem_ctrls2.wrQLenPdf::17                 10938                       # What write queue length does an incoming req see
system.mem_ctrls2.wrQLenPdf::18                 11008                       # What write queue length does an incoming req see
system.mem_ctrls2.wrQLenPdf::19                 11004                       # What write queue length does an incoming req see
system.mem_ctrls2.wrQLenPdf::20                 11001                       # What write queue length does an incoming req see
system.mem_ctrls2.wrQLenPdf::21                 10993                       # What write queue length does an incoming req see
system.mem_ctrls2.wrQLenPdf::22                 11001                       # What write queue length does an incoming req see
system.mem_ctrls2.wrQLenPdf::23                 10999                       # What write queue length does an incoming req see
system.mem_ctrls2.wrQLenPdf::24                 11005                       # What write queue length does an incoming req see
system.mem_ctrls2.wrQLenPdf::25                 10997                       # What write queue length does an incoming req see
system.mem_ctrls2.wrQLenPdf::26                 10992                       # What write queue length does an incoming req see
system.mem_ctrls2.wrQLenPdf::27                 10993                       # What write queue length does an incoming req see
system.mem_ctrls2.wrQLenPdf::28                 11000                       # What write queue length does an incoming req see
system.mem_ctrls2.wrQLenPdf::29                 10987                       # What write queue length does an incoming req see
system.mem_ctrls2.wrQLenPdf::30                 10983                       # What write queue length does an incoming req see
system.mem_ctrls2.wrQLenPdf::31                 10983                       # What write queue length does an incoming req see
system.mem_ctrls2.wrQLenPdf::32                 10982                       # What write queue length does an incoming req see
system.mem_ctrls2.wrQLenPdf::33                     3                       # What write queue length does an incoming req see
system.mem_ctrls2.wrQLenPdf::34                     0                       # What write queue length does an incoming req see
system.mem_ctrls2.wrQLenPdf::35                     0                       # What write queue length does an incoming req see
system.mem_ctrls2.wrQLenPdf::36                     0                       # What write queue length does an incoming req see
system.mem_ctrls2.wrQLenPdf::37                     0                       # What write queue length does an incoming req see
system.mem_ctrls2.wrQLenPdf::38                     0                       # What write queue length does an incoming req see
system.mem_ctrls2.wrQLenPdf::39                     0                       # What write queue length does an incoming req see
system.mem_ctrls2.wrQLenPdf::40                     0                       # What write queue length does an incoming req see
system.mem_ctrls2.wrQLenPdf::41                     0                       # What write queue length does an incoming req see
system.mem_ctrls2.wrQLenPdf::42                     0                       # What write queue length does an incoming req see
system.mem_ctrls2.wrQLenPdf::43                     0                       # What write queue length does an incoming req see
system.mem_ctrls2.wrQLenPdf::44                     0                       # What write queue length does an incoming req see
[...]
system.ruby.L1Cache_Controller.O.Store   |          38     24.05%     24.05% |          70     44.30%     68.35% |          20     12.66%     81.01% |          30     18.99%    100.00%
system.ruby.L1Cache_Controller.O.Store::total          158                      
system.ruby.L1Cache_Controller.O.L1_Replacement |         123     16.92%     16.92% |         295     40.58%     57.50% |         208     28.61%     86.11% |         101     13.89%    100.00%
system.ruby.L1Cache_Controller.O.L1_Replacement::total          727                      
system.ruby.L1Cache_Controller.O.Fwd_GETX |        3949     20.95%     20.95% |        8857     46.99%     67.94% |         205      1.09%     69.03% |        5838     30.97%    100.00%
system.ruby.L1Cache_Controller.O.Fwd_GETX::total        18849                      
system.ruby.L1Cache_Controller.O.Fwd_GETS |        2076     11.01%     11.01% |       10003     53.03%     64.04% |         182      0.96%     65.00% |        6601     35.00%    100.00%
system.ruby.L1Cache_Controller.O.Fwd_GETS::total        18862                      
system.ruby.L1Cache_Controller.M.Load    |      108341      0.64%      0.64% |       84013      0.49%      1.13% |    16810334     98.68%     99.81% |       33193      0.19%    100.00%
system.ruby.L1Cache_Controller.M.Load::total     17035881                      
system.ruby.L1Cache_Controller.M.Store   |       13427     10.13%     10.13% |        2838      2.14%     12.27% |      115446     87.10%     99.37% |         831      0.63%    100.00%
system.ruby.L1Cache_Controller.M.Store::total       132542                      
system.ruby.L1Cache_Controller.M.L1_Replacement |        6927      1.07%      1.07% |        3037      0.47%      1.53% |      636909     98.05%     99.58% |        2706      0.42%    100.00%
system.ruby.L1Cache_Controller.M.L1_Replacement::total       649579                      
system.ruby.L1Cache_Controller.M.Fwd_GETX |         395     38.09%     38.09% |         350     33.75%     71.84% |          78      7.52%     79.36% |         214     20.64%    100.00%
system.ruby.L1Cache_Controller.M.Fwd_GETX::total         1037                      
system.ruby.L1Cache_Controller.M.Fwd_GETS |        4112     20.91%     20.91% |        9238     46.97%     67.88% |         340      1.73%     69.61% |        5978     30.39%    100.00%
system.ruby.L1Cache_Controller.M.Fwd_GETS::total        19668                      
system.ruby.L1Cache_Controller.M_W.Load  |       21519      3.82%      3.82% |       10953      1.94%      5.76% |      524218     92.95%     98.71% |        7295      1.29%    100.00%
system.ruby.L1Cache_Controller.M_W.Load::total       563985                      
system.ruby.L1Cache_Controller.M_W.Store |        1627      2.23%      2.23% |        1454      2.00%      4.23% |       69308     95.20%     99.43% |         412      0.57%    100.00%
system.ruby.L1Cache_Controller.M_W.Store::total        72801                      
system.ruby.L1Cache_Controller.M_W.L1_Replacement |           8      3.64%      3.64% |           0      0.00%      3.64% |         199     90.45%     94.09% |          13      5.91%    100.00%
system.ruby.L1Cache_Controller.M_W.L1_Replacement::total          220                      
system.ruby.L1Cache_Controller.M_W.Fwd_GETX |          43     68.25%     68.25% |           2      3.17%     71.43% |           3      4.76%     76.19% |          15     23.81%    100.00%
system.ruby.L1Cache_Controller.M_W.Fwd_GETX::total           63                      
system.ruby.L1Cache_Controller.M_W.Fwd_GETS |          91     29.35%     29.35% |         118     38.06%     67.42% |          22      7.10%     74.52% |          79     25.48%    100.00%
system.ruby.L1Cache_Controller.M_W.Fwd_GETS::total          310                      
system.ruby.L1Cache_Controller.M_W.Use_Timeout |       24773      3.09%      3.09% |       15467      1.93%      5.01% |      752840     93.78%     98.79% |        9732      1.21%    100.00%
system.ruby.L1Cache_Controller.M_W.Use_Timeout::total       802812                      
system.ruby.L1Cache_Controller.MM.Load   |     1470204      0.77%      0.77% |      899213      0.47%      1.25% |   186988040     98.42%     99.67% |      623178      0.33%    100.00%
system.ruby.L1Cache_Controller.MM.Load::total    189980635                      
system.ruby.L1Cache_Controller.MM.Store  |     1484084      2.67%      2.67% |      948444      1.71%      4.38% |    52436132     94.40%     98.78% |      676966      1.22%    100.00%
system.ruby.L1Cache_Controller.MM.Store::total     55545626                      
system.ruby.L1Cache_Controller.MM.L1_Replacement |       40414      3.29%      3.29% |       17255      1.40%      4.69% |     1164066     94.66%     99.35% |        7999      0.65%    100.00%
system.ruby.L1Cache_Controller.MM.L1_Replacement::total      1229734                      
system.ruby.L1Cache_Controller.MM.Fwd_GETX |        1022     24.77%     24.77% |         951     23.05%     47.82% |        1341     32.50%     80.32% |         812     19.68%    100.00%
system.ruby.L1Cache_Controller.MM.Fwd_GETX::total         4126                      
system.ruby.L1Cache_Controller.MM.Fwd_GETS |        8199     45.62%     45.62% |        3422     19.04%     64.65% |        3528     19.63%     84.28% |        2825     15.72%    100.00%
system.ruby.L1Cache_Controller.MM.Fwd_GETS::total        17974                      
system.ruby.L1Cache_Controller.MM.Fwd_DMA |           4     33.33%     33.33% |           0      0.00%     33.33% |           8     66.67%    100.00% |           0      0.00%    100.00%
system.ruby.L1Cache_Controller.MM.Fwd_DMA::total           12                      
system.ruby.L1Cache_Controller.MM_W.Load |        4449      2.17%      2.17% |        1656      0.81%      2.98% |      198150     96.64%     99.62% |         775      0.38%    100.00%
system.ruby.L1Cache_Controller.MM_W.Load::total       205030                      
system.ruby.L1Cache_Controller.MM_W.Store |      117122      5.90%      5.90% |       73132      3.68%      9.59% |     1762311     88.80%     98.39% |       32036      1.61%    100.00%
system.ruby.L1Cache_Controller.MM_W.Store::total      1984601                      
system.ruby.L1Cache_Controller.MM_W.L1_Replacement |           0      0.00%      0.00% |           0      0.00%      0.00% |          22    100.00%    100.00% |           0      0.00%    100.00%
system.ruby.L1Cache_Controller.MM_W.L1_Replacement::total           22                      
system.ruby.L1Cache_Controller.MM_W.Fwd_GETX |           3     15.00%     15.00% |          10     50.00%     65.00% |           4     20.00%     85.00% |           3     15.00%    100.00%
system.ruby.L1Cache_Controller.MM_W.Fwd_GETX::total           20                      
system.ruby.L1Cache_Controller.MM_W.Fwd_GETS |         321     18.52%     18.52% |         638     36.81%     55.34% |         248     14.31%     69.65% |         526     30.35%    100.00%
system.ruby.L1Cache_Controller.MM_W.Fwd_GETS::total         1733                      
system.ruby.L1Cache_Controller.MM_W.Use_Timeout |       36336      3.25%      3.25% |       18944      1.69%      4.94% |     1053416     94.08%     99.02% |       10983      0.98%    100.00%
system.ruby.L1Cache_Controller.MM_W.Use_Timeout::total      1119679                      
system.ruby.L1Cache_Controller.IM.Ack    |        9446     45.78%     45.78% |        3576     17.33%     63.11% |        3378     16.37%     79.48% |        4234     20.52%    100.00%
system.ruby.L1Cache_Controller.IM.Ack::total        20634                      
system.ruby.L1Cache_Controller.IM.Exclusive_Data |       24781      4.10%      4.10% |       14847      2.46%      6.55% |      557290     92.15%     98.71% |        7823      1.29%    100.00%
system.ruby.L1Cache_Controller.IM.Exclusive_Data::total       604741                      
system.ruby.L1Cache_Controller.SM.Ack    |        9604     56.87%     56.87% |        1212      7.18%     64.05% |        3080     18.24%     82.29% |        2991     17.71%    100.00%
system.ruby.L1Cache_Controller.SM.Ack::total        16887                      
system.ruby.L1Cache_Controller.SM.Exclusive_Data |        9890      2.24%      2.24% |        2573      0.58%      2.82% |      426798     96.57%     99.39% |        2718      0.61%    100.00%
system.ruby.L1Cache_Controller.SM.Exclusive_Data::total       441979                      
system.ruby.L1Cache_Controller.OM.Own_GETX |          38     24.05%     24.05% |          70     44.30%     68.35% |          20     12.66%     81.01% |          30     18.99%    100.00%
system.ruby.L1Cache_Controller.OM.Own_GETX::total          158                      
system.ruby.L1Cache_Controller.OM.Ack    |         666     31.25%     31.25% |         422     19.80%     51.06% |         874     41.01%     92.07% |         169      7.93%    100.00%
system.ruby.L1Cache_Controller.OM.Ack::total         2131                      
system.ruby.L1Cache_Controller.OM.All_acks |       34709      3.32%      3.32% |       17490      1.67%      4.99% |      984108     94.00%     98.99% |       10571      1.01%    100.00%
system.ruby.L1Cache_Controller.OM.All_acks::total      1046878                      
system.ruby.L1Cache_Controller.IS.Data   |      129107      4.53%      4.53% |       72708      2.55%      7.08% |     2590662     90.90%     97.98% |       57524      2.02%    100.00%
system.ruby.L1Cache_Controller.IS.Data::total      2850001                      
system.ruby.L1Cache_Controller.IS.Exclusive_Data |       26399      3.01%      3.01% |       16921      1.93%      4.95% |      822148     93.89%     98.84% |       10144      1.16%    100.00%
system.ruby.L1Cache_Controller.IS.Exclusive_Data::total       875612                      
system.ruby.L1Cache_Controller.SI.Load   |           4      5.00%      5.00% |           0      0.00%      5.00% |          75     93.75%     98.75% |           1      1.25%    100.00%
system.ruby.L1Cache_Controller.SI.Load::total           80                      
system.ruby.L1Cache_Controller.SI.Ifetch |           4    100.00%    100.00% |           0      0.00%    100.00% |           0      0.00%    100.00% |           0      0.00%    100.00%
system.ruby.L1Cache_Controller.SI.Ifetch::total            4                      
system.ruby.L1Cache_Controller.SI.Writeback_Ack |      100483      6.13%      6.13% |       60946      3.72%      9.85% |     1432885     87.42%     97.27% |       44818      2.73%    100.00%
system.ruby.L1Cache_Controller.SI.Writeback_Ack::total      1639132                      
system.ruby.L1Cache_Controller.SI.Writeback_Ack_Data |       15826      2.10%      2.10% |        5688      0.76%      2.86% |      727751     96.65%     99.50% |        3733      0.50%    100.00%
system.ruby.L1Cache_Controller.SI.Writeback_Ack_Data::total       752998                      
system.ruby.L1Cache_Controller.OI.Writeback_Ack_Data |         123     16.92%     16.92% |         295     40.58%     57.50% |         208     28.61%     86.11% |         101     13.89%    100.00%
system.ruby.L1Cache_Controller.OI.Writeback_Ack_Data::total          727                      
system.ruby.L1Cache_Controller.MI.Load   |           3     10.00%     10.00% |           0      0.00%     10.00% |          25     83.33%     93.33% |           2      6.67%    100.00%
system.ruby.L1Cache_Controller.MI.Load::total           30                      
system.ruby.L1Cache_Controller.MI.Store  |           0      0.00%      0.00% |           1    100.00%    100.00% |           0      0.00%    100.00% |           0      0.00%    100.00%
system.ruby.L1Cache_Controller.MI.Store::total            1                      
system.ruby.L1Cache_Controller.MI.Writeback_Ack_Data |       47342      2.52%      2.52% |       20292      1.08%      3.60% |     1800975     95.83%     99.43% |       10705      0.57%    100.00%
system.ruby.L1Cache_Controller.MI.Writeback_Ack_Data::total      1879314                      
system.ruby.L2Cache_Controller.L1_GETS        3725972      0.00%      0.00%
system.ruby.L2Cache_Controller.L1_GETX        1046900      0.00%      0.00%
system.ruby.L2Cache_Controller.L1_PUTO            728      0.00%      0.00%
system.ruby.L2Cache_Controller.L1_PUTX        1879313      0.00%      0.00%
system.ruby.L2Cache_Controller.L1_PUTS_only      2191530      0.00%      0.00%
system.ruby.L2Cache_Controller.L1_PUTS         200606      0.00%      0.00%
system.ruby.L2Cache_Controller.Fwd_GETX            37      0.00%      0.00%
system.ruby.L2Cache_Controller.Fwd_DMA             18      0.00%      0.00%
system.ruby.L2Cache_Controller.All_Acks        824891      0.00%      0.00%
system.ruby.L2Cache_Controller.Data           1913163      0.00%      0.00%
system.ruby.L2Cache_Controller.L1_WBCLEANDATA       752998      0.00%      0.00%
system.ruby.L2Cache_Controller.L1_WBDIRTYDATA      1880041      0.00%      0.00%
system.ruby.L2Cache_Controller.Writeback_Ack       810846      0.00%      0.00%
system.ruby.L2Cache_Controller.Unblock        4489133      0.00%      0.00%
system.ruby.L2Cache_Controller.Exclusive_Unblock      1922491      0.00%      0.00%
system.ruby.L2Cache_Controller.DmaAck              12      0.00%      0.00%
system.ruby.L2Cache_Controller.L2_Replacement      1451734      0.00%      0.00%
system.ruby.L2Cache_Controller.NP.L1_GETS      1088272      0.00%      0.00%
system.ruby.L2Cache_Controller.NP.L1_GETX       374721      0.00%      0.00%
system.ruby.L2Cache_Controller.ILS.L1_GETS         5374      0.00%      0.00%
system.ruby.L2Cache_Controller.ILS.L1_GETX       342792      0.00%      0.00%
system.ruby.L2Cache_Controller.ILS.L1_PUTS_only       745910      0.00%      0.00%
system.ruby.L2Cache_Controller.ILS.L1_PUTS         7088      0.00%      0.00%
system.ruby.L2Cache_Controller.ILX.L1_GETS        37642      0.00%      0.00%
system.ruby.L2Cache_Controller.ILX.L1_GETX         5163      0.00%      0.00%
system.ruby.L2Cache_Controller.ILX.L1_PUTX      1879313      0.00%      0.00%
system.ruby.L2Cache_Controller.ILX.Fwd_DMA           12      0.00%      0.00%
system.ruby.L2Cache_Controller.ILOX.L1_GETS         8534      0.00%      0.00%
system.ruby.L2Cache_Controller.ILOX.L1_GETX         1938      0.00%      0.00%
system.ruby.L2Cache_Controller.ILOX.L1_PUTO          295      0.00%      0.00%
system.ruby.L2Cache_Controller.ILOSX.L1_GETS        10328      0.00%      0.00%
system.ruby.L2Cache_Controller.ILOSX.L1_GETX        17069      0.00%      0.00%
system.ruby.L2Cache_Controller.ILOSX.L1_PUTO          432      0.00%      0.00%
system.ruby.L2Cache_Controller.ILOSX.L1_PUTS_only        10772      0.00%      0.00%
system.ruby.L2Cache_Controller.ILOSX.L1_PUTS         2892      0.00%      0.00%
system.ruby.L2Cache_Controller.S.L1_GETS      1524892      0.00%      0.00%
system.ruby.L2Cache_Controller.S.L1_GETX        18084      0.00%      0.00%
system.ruby.L2Cache_Controller.S.L2_Replacement       633315      0.00%      0.00%
system.ruby.L2Cache_Controller.OLSX.L1_GETS         7448      0.00%      0.00%
system.ruby.L2Cache_Controller.OLSX.L1_GETX          210      0.00%      0.00%
system.ruby.L2Cache_Controller.OLSX.L1_PUTS_only          172      0.00%      0.00%
system.ruby.L2Cache_Controller.OLSX.L1_PUTS         7336      0.00%      0.00%
system.ruby.L2Cache_Controller.OLSX.L2_Replacement           50      0.00%      0.00%
system.ruby.L2Cache_Controller.SLS.L1_GETS       185485      0.00%      0.00%
system.ruby.L2Cache_Controller.SLS.L1_GETX        89294      0.00%      0.00%
system.ruby.L2Cache_Controller.SLS.L1_PUTS_only      1434674      0.00%      0.00%
system.ruby.L2Cache_Controller.SLS.L1_PUTS       183286      0.00%      0.00%
system.ruby.L2Cache_Controller.SLS.L2_Replacement         7573      0.00%      0.00%
system.ruby.L2Cache_Controller.M.L1_GETS       857638      0.00%      0.00%
system.ruby.L2Cache_Controller.M.L1_GETX       197607      0.00%      0.00%
system.ruby.L2Cache_Controller.M.Fwd_GETX           37      0.00%      0.00%
system.ruby.L2Cache_Controller.M.Fwd_DMA            6      0.00%      0.00%
system.ruby.L2Cache_Controller.M.L2_Replacement       810796      0.00%      0.00%
system.ruby.L2Cache_Controller.ILOXW.L1_PUTO            1      0.00%      0.00%
system.ruby.L2Cache_Controller.ILOXW.L1_WBDIRTYDATA          295      0.00%      0.00%
system.ruby.L2Cache_Controller.ILOXW.Unblock        10772      0.00%      0.00%
system.ruby.L2Cache_Controller.ILOSXW.L1_PUTS_only            2      0.00%      0.00%
system.ruby.L2Cache_Controller.ILOSXW.L1_WBDIRTYDATA          432      0.00%      0.00%
system.ruby.L2Cache_Controller.ILOSXW.Unblock         2892      0.00%      0.00%
system.ruby.L2Cache_Controller.SLSW.L1_GETS            6      0.00%      0.00%
system.ruby.L2Cache_Controller.SLSW.L1_PUTS            4      0.00%      0.00%
system.ruby.L2Cache_Controller.SLSW.Unblock       183286      0.00%      0.00%
system.ruby.L2Cache_Controller.ILSW.L1_WBCLEANDATA         7088      0.00%      0.00%
system.ruby.L2Cache_Controller.IW.L1_WBCLEANDATA       745910      0.00%      0.00%
system.ruby.L2Cache_Controller.SW.Unblock      1434674      0.00%      0.00%
system.ruby.L2Cache_Controller.OXW.Unblock          172      0.00%      0.00%
system.ruby.L2Cache_Controller.OLSXW.Unblock         7336      0.00%      0.00%
system.ruby.L2Cache_Controller.ILXW.L1_GETS            1      0.00%      0.00%
system.ruby.L2Cache_Controller.ILXW.L1_GETX            1      0.00%      0.00%
system.ruby.L2Cache_Controller.ILXW.L1_WBDIRTYDATA      1879314      0.00%      0.00%
system.ruby.L2Cache_Controller.IFLS.L1_GETS            3      0.00%      0.00%
system.ruby.L2Cache_Controller.IFLS.Unblock         5374      0.00%      0.00%
system.ruby.L2Cache_Controller.IFLOX.Unblock         8534      0.00%      0.00%
system.ruby.L2Cache_Controller.IFLOX.Exclusive_Unblock          210      0.00%      0.00%
system.ruby.L2Cache_Controller.IFLOXX.L1_GETS          149      0.00%      0.00%
system.ruby.L2Cache_Controller.IFLOXX.L1_GETX           20      0.00%      0.00%
system.ruby.L2Cache_Controller.IFLOXX.Unblock        19668      0.00%      0.00%
system.ruby.L2Cache_Controller.IFLOXX.Exclusive_Unblock        25075      0.00%      0.00%
system.ruby.L2Cache_Controller.IFLOSX.Unblock        10328      0.00%      0.00%
system.ruby.L2Cache_Controller.IFLXO.L1_GETS           85      0.00%      0.00%
system.ruby.L2Cache_Controller.IFLXO.L1_GETX            1      0.00%      0.00%
system.ruby.L2Cache_Controller.IFLXO.Exclusive_Unblock        17069      0.00%      0.00%
system.ruby.L2Cache_Controller.IGS.L1_GETS          113      0.00%      0.00%
system.ruby.L2Cache_Controller.IGS.Data       1088272      0.00%      0.00%
system.ruby.L2Cache_Controller.IGS.Unblock      1088272      0.00%      0.00%
system.ruby.L2Cache_Controller.IGM.Data        392805      0.00%      0.00%
system.ruby.L2Cache_Controller.IGMLS.Data       432086      0.00%      0.00%
system.ruby.L2Cache_Controller.IGMO.All_Acks       824891      0.00%      0.00%
system.ruby.L2Cache_Controller.IGMO.Exclusive_Unblock       824891      0.00%      0.00%
system.ruby.L2Cache_Controller.MM.Exclusive_Unblock       197607      0.00%      0.00%
system.ruby.L2Cache_Controller.SS.Unblock      1524892      0.00%      0.00%
system.ruby.L2Cache_Controller.OO.Exclusive_Unblock       857639      0.00%      0.00%
system.ruby.L2Cache_Controller.OLSXS.Unblock         7448      0.00%      0.00%
system.ruby.L2Cache_Controller.SLSS.L1_GETS            2      0.00%      0.00%
system.ruby.L2Cache_Controller.SLSS.Unblock       185485      0.00%      0.00%
system.ruby.L2Cache_Controller.MI.Writeback_Ack       810796      0.00%      0.00%
system.ruby.L2Cache_Controller.OLSI.Writeback_Ack           50      0.00%      0.00%
system.ruby.L2Cache_Controller.ILXD.DmaAck           12      0.00%      0.00%

---------- End Simulation Statistics   ----------
