
---------- Begin Simulation Statistics ----------
sim_seconds                                  0.786767                       # Number of seconds simulated
sim_ticks                                786766570000                       # Number of ticks simulated
final_tick                               54313034040001                       # Number of ticks from beginning of simulation (restored from checkpoints and never reset)
sim_freq                                 1000000000000                       # Frequency of simulated ticks
host_inst_rate                                  96451                       # Simulator instruction rate (inst/s)
host_op_rate                                   159736                       # Simulator op (including micro ops) rate (op/s)
host_tick_rate                              271159022                       # Simulator tick rate (ticks/s)
host_mem_usage                                1869016                       # Number of bytes of host memory used
host_seconds                                  2901.50                       # Real time elapsed on the host
sim_insts                                   279852994                       # Number of instructions simulated
sim_ops                                     463471989                       # Number of ops (including micro ops) simulated
system.voltage_domain.voltage                       1                       # Voltage in Volts
system.clk_domain.clock                          1000                       # Clock period in ticks
system.mem_ctrls.bytes_read::ruby.dir_cntrl0    261904064                       # Number of bytes read from this memory
system.mem_ctrls.bytes_read::total          261904064                       # Number of bytes read from this memory
system.mem_ctrls.bytes_written::ruby.dir_cntrl0    139405312                       # Number of bytes written to this memory
system.mem_ctrls.bytes_written::total       139405312                       # Number of bytes written to this memory
system.mem_ctrls.num_reads::ruby.dir_cntrl0      4092251                       # Number of read requests responded to by this memory
system.mem_ctrls.num_reads::total             4092251                       # Number of read requests responded to by this memory
system.mem_ctrls.num_writes::ruby.dir_cntrl0      2178208                       # Number of write requests responded to by this memory
system.mem_ctrls.num_writes::total            2178208                       # Number of write requests responded to by this memory
system.mem_ctrls.bw_read::ruby.dir_cntrl0    332886620                       # Total read bandwidth from this memory (bytes/s)
system.mem_ctrls.bw_read::total             332886620                       # Total read bandwidth from this memory (bytes/s)
system.mem_ctrls.bw_write::ruby.dir_cntrl0    177187640                       # Write bandwidth from this memory (bytes/s)
system.mem_ctrls.bw_write::total            177187640                       # Write bandwidth from this memory (bytes/s)
system.mem_ctrls.bw_total::ruby.dir_cntrl0    510074260                       # Total bandwidth to/from this memory (bytes/s)
system.mem_ctrls.bw_total::total            510074260                       # Total bandwidth to/from this memory (bytes/s)
system.mem_ctrls.readReqs                     4092251                       # Number of read requests accepted
system.mem_ctrls.writeReqs                    2178208                       # Number of write requests accepted
system.mem_ctrls.readBursts                   4092251                       # Number of DRAM read bursts, including those serviced by the write queue
system.mem_ctrls.writeBursts                  2178208                       # Number of DRAM write bursts, including those merged in the write queue
system.mem_ctrls.bytesReadDRAM              261396224                       # Total number of bytes read from DRAM
system.mem_ctrls.bytesReadWrQ                  507840                       # Total number of bytes read from write queue
system.mem_ctrls.bytesWritten               139405440                       # Total number of bytes written to DRAM
system.mem_ctrls.bytesReadSys               261904064                       # Total read bytes from the system interface side
system.mem_ctrls.bytesWrittenSys            139405312                       # Total written bytes from the system interface side
system.mem_ctrls.servicedByWrQ                   7935                       # Number of DRAM read bursts serviced by the write queue
system.mem_ctrls.mergedWrBursts                     3                       # Number of DRAM write bursts merged with an existing one
system.mem_ctrls.neitherReadNorWriteReqs            0                       # Number of requests that are neither read nor write
system.mem_ctrls.perBankRdBursts::0            248218                       # Per bank write bursts
system.mem_ctrls.perBankRdBursts::1            236265                       # Per bank write bursts
system.mem_ctrls.perBankRdBursts::2            244417                       # Per bank write bursts
system.mem_ctrls.perBankRdBursts::3            245880                       # Per bank write bursts
system.mem_ctrls.perBankRdBursts::4            268531                       # Per bank write bursts
system.mem_ctrls.perBankRdBursts::5            294933                       # Per bank write bursts
system.mem_ctrls.perBankRdBursts::6            247609                       # Per bank write bursts
system.mem_ctrls.perBankRdBursts::7            247262                       # Per bank write bursts
system.mem_ctrls.perBankRdBursts::8            261292                       # Per bank write bursts
system.mem_ctrls.perBankRdBursts::9            248004                       # Per bank write bursts
system.mem_ctrls.perBankRdBursts::10           251642                       # Per bank write bursts
system.mem_ctrls.perBankRdBursts::11           254604                       # Per bank write bursts
system.mem_ctrls.perBankRdBursts::12           250927                       # Per bank write bursts
system.mem_ctrls.perBankRdBursts::13           260486                       # Per bank write bursts
system.mem_ctrls.perBankRdBursts::14           260050                       # Per bank write bursts
system.mem_ctrls.perBankRdBursts::15           264196                       # Per bank write bursts
system.mem_ctrls.perBankWrBursts::0            133204                       # Per bank write bursts
system.mem_ctrls.perBankWrBursts::1            131238                       # Per bank write bursts
system.mem_ctrls.perBankWrBursts::2            135229                       # Per bank write bursts
system.mem_ctrls.perBankWrBursts::3            134351                       # Per bank write bursts
system.mem_ctrls.perBankWrBursts::4            137964                       # Per bank write bursts
system.mem_ctrls.perBankWrBursts::5            138667                       # Per bank write bursts
system.mem_ctrls.perBankWrBursts::6            136291                       # Per bank write bursts
system.mem_ctrls.perBankWrBursts::7            135843                       # Per bank write bursts
system.mem_ctrls.perBankWrBursts::8            136838                       # Per bank write bursts
system.mem_ctrls.perBankWrBursts::9            134589                       # Per bank write bursts
system.mem_ctrls.perBankWrBursts::10           133682                       # Per bank write bursts
system.mem_ctrls.perBankWrBursts::11           134638                       # Per bank write bursts
system.mem_ctrls.perBankWrBursts::12           134201                       # Per bank write bursts
system.mem_ctrls.perBankWrBursts::13           138313                       # Per bank write bursts
system.mem_ctrls.perBankWrBursts::14           137960                       # Per bank write bursts
system.mem_ctrls.perBankWrBursts::15           145202                       # Per bank write bursts
system.mem_ctrls.numRdRetry                         0                       # Number of times read queue was full causing retry
system.mem_ctrls.numWrRetry                         0                       # Number of times write queue was full causing retry
system.mem_ctrls.totGap                  786766516000                       # Total gap between requests
system.mem_ctrls.readPktSize::0                     0                       # Read request sizes (log2)
system.mem_ctrls.readPktSize::1                     0                       # Read request sizes (log2)
system.mem_ctrls.readPktSize::2                     0                       # Read request sizes (log2)
system.mem_ctrls.readPktSize::3                     0                       # Read request sizes (log2)
system.mem_ctrls.readPktSize::4                     0                       # Read request sizes (log2)
system.mem_ctrls.readPktSize::5                     0                       # Read request sizes (log2)
system.mem_ctrls.readPktSize::6               4092251                       # Read request sizes (log2)
system.mem_ctrls.writePktSize::0                    0                       # Write request sizes (log2)
system.mem_ctrls.writePktSize::1                    0                       # Write request sizes (log2)
system.mem_ctrls.writePktSize::2                    0                       # Write request sizes (log2)
system.mem_ctrls.writePktSize::3                    0                       # Write request sizes (log2)
system.mem_ctrls.writePktSize::4                    0                       # Write request sizes (log2)
system.mem_ctrls.writePktSize::5                    0                       # Write request sizes (log2)
system.mem_ctrls.writePktSize::6              2178208                       # Write request sizes (log2)
system.mem_ctrls.rdQLenPdf::0                 4058536                       # What read queue length does an incoming req see
system.mem_ctrls.rdQLenPdf::1                   25698                       # What read queue length does an incoming req see
system.mem_ctrls.rdQLenPdf::2                      82                       # What read queue length does an incoming req see
system.mem_ctrls.rdQLenPdf::3                       0                       # What read queue length does an incoming req see
system.mem_ctrls.rdQLenPdf::4                       0                       # What read queue length does an incoming req see
system.mem_ctrls.rdQLenPdf::5                       0                       # What read queue length does an incoming req see
system.mem_ctrls.rdQLenPdf::6                       0                       # What read queue length does an incoming req see
system.mem_ctrls.rdQLenPdf::7                       0                       # What read queue length does an incoming req see
system.mem_ctrls.rdQLenPdf::8                       0                       # What read queue length does an incoming req see
system.mem_ctrls.rdQLenPdf::9                       0                       # What read queue length does an incoming req see
system.mem_ctrls.rdQLenPdf::10                      0                       # What read queue length does an incoming req see
system.mem_ctrls.rdQLenPdf::11                      0                       # What read queue length does an incoming req see
system.mem_ctrls.rdQLenPdf::12                      0                       # What read queue length does an incoming req see
system.mem_ctrls.rdQLenPdf::13                      0                       # What read queue length does an incoming req see
system.mem_ctrls.rdQLenPdf::14                      0                       # What read queue length does an incoming req see
system.mem_ctrls.rdQLenPdf::15                      0                       # What read queue length does an incoming req see
system.mem_ctrls.rdQLenPdf::16                      0                       # What read queue length does an incoming req see
system.mem_ctrls.rdQLenPdf::17                      0                       # What read queue length does an incoming req see
system.mem_ctrls.rdQLenPdf::18                      0                       # What read queue length does an incoming req see
system.mem_ctrls.rdQLenPdf::19                      0                       # What read queue length does an incoming req see
system.mem_ctrls.rdQLenPdf::20                      0                       # What read queue length does an incoming req see
system.mem_ctrls.rdQLenPdf::21                      0                       # What read queue length does an incoming req see
system.mem_ctrls.rdQLenPdf::22                      0                       # What read queue length does an incoming req see
system.mem_ctrls.rdQLenPdf::23                      0                       # What read queue length does an incoming req see
system.mem_ctrls.rdQLenPdf::24                      0                       # What read queue length does an incoming req see
system.mem_ctrls.rdQLenPdf::25                      0                       # What read queue length does an incoming req see
system.mem_ctrls.rdQLenPdf::26                      0                       # What read queue length does an incoming req see
system.mem_ctrls.rdQLenPdf::27                      0                       # What read queue length does an incoming req see
system.mem_ctrls.rdQLenPdf::28                      0                       # What read queue length does an incoming req see
system.mem_ctrls.rdQLenPdf::29                      0                       # What read queue length does an incoming req see
system.mem_ctrls.rdQLenPdf::30                      0                       # What read queue length does an incoming req see
system.mem_ctrls.rdQLenPdf::31                      0                       # What read queue length does an incoming req see
system.mem_ctrls.wrQLenPdf::0                       0                       # What write queue length does an incoming req see
system.mem_ctrls.wrQLenPdf::1                       0                       # What write queue length does an incoming req see
system.mem_ctrls.wrQLenPdf::2                       0                       # What write queue length does an incoming req see
system.mem_ctrls.wrQLenPdf::3                       0                       # What write queue length does an incoming req see
system.mem_ctrls.wrQLenPdf::4                       0                       # What write queue length does an incoming req see
system.mem_ctrls.wrQLenPdf::5                       0                       # What write queue length does an incoming req see
system.mem_ctrls.wrQLenPdf::6                       0                       # What write queue length does an incoming req see
system.mem_ctrls.wrQLenPdf::7                       0                       # What write queue length does an incoming req see
system.mem_ctrls.wrQLenPdf::8                       0                       # What write queue length does an incoming req see
system.mem_ctrls.wrQLenPdf::9                       0                       # What write queue length does an incoming req see
system.mem_ctrls.wrQLenPdf::10                      0                       # What write queue length does an incoming req see
system.mem_ctrls.wrQLenPdf::11                      0                       # What write queue length does an incoming req see
system.mem_ctrls.wrQLenPdf::12                      0                       # What write queue length does an incoming req see
system.mem_ctrls.wrQLenPdf::13                      0                       # What write queue length does an incoming req see
system.mem_ctrls.wrQLenPdf::14                      0                       # What write queue length does an incoming req see
system.mem_ctrls.wrQLenPdf::15                  64507                       # What write queue length does an incoming req see
system.mem_ctrls.wrQLenPdf::16                  66805                       # What write queue length does an incoming req see
system.mem_ctrls.wrQLenPdf::17                 108662                       # What write queue length does an incoming req see
system.mem_ctrls.wrQLenPdf::18                 131990                       # What write queue length does an incoming req see
system.mem_ctrls.wrQLenPdf::19                 134151                       # What write queue length does an incoming req see
system.mem_ctrls.wrQLenPdf::20                 131865                       # What write queue length does an incoming req see
system.mem_ctrls.wrQLenPdf::21                 129662                       # What write queue length does an incoming req see
system.mem_ctrls.wrQLenPdf::22                 128203                       # What write queue length does an incoming req see
system.mem_ctrls.wrQLenPdf::23                 127684                       # What write queue length does an incoming req see
system.mem_ctrls.wrQLenPdf::24                 127477                       # What write queue length does an incoming req see
system.mem_ctrls.wrQLenPdf::25                 127552                       # What write queue length does an incoming req see
system.mem_ctrls.wrQLenPdf::26                 127840                       # What write queue length does an incoming req see
system.mem_ctrls.wrQLenPdf::27                 128424                       # What write queue length does an incoming req see
system.mem_ctrls.wrQLenPdf::28                 128071                       # What write queue length does an incoming req see
system.mem_ctrls.wrQLenPdf::29                 129959                       # What write queue length does an incoming req see
system.mem_ctrls.wrQLenPdf::30                 127526                       # What write queue length does an incoming req see
system.mem_ctrls.wrQLenPdf::31                 127228                       # What write queue length does an incoming req see
system.mem_ctrls.wrQLenPdf::32                 130149                       # What write queue length does an incoming req see
system.mem_ctrls.wrQLenPdf::33                    381                       # What write queue length does an incoming req see
system.mem_ctrls.wrQLenPdf::34                     54                       # What write queue length does an incoming req see
system.mem_ctrls.wrQLenPdf::35                     10                       # What write queue length does an incoming req see
system.mem_ctrls.wrQLenPdf::36                      4                       # What write queue length does an incoming req see
system.mem_ctrls.wrQLenPdf::37                      1                       # What write queue length does an incoming req see
system.mem_ctrls.wrQLenPdf::38                      0                       # What write queue length does an incoming req see
system.mem_ctrls.wrQLenPdf::39                      0                       # What write queue length does an incoming req see
system.mem_ctrls.wrQLenPdf::40                      0                       # What write queue length does an incoming req see
system.mem_ctrls.wrQLenPdf::41                      0                       # What write queue length does an incoming req see
system.mem_ctrls.wrQLenPdf::42                      0                       # What write queue length does an incoming req see
system.mem_ctrls.wrQLenPdf::43                      0                       # What write queue length does an incoming req see
system.mem_ctrls.wrQLenPdf::44                      0                       # What write queue length does an incoming req see
system.mem_ctrls.wrQLenPdf::45                      0                       # What write queue length does an incoming req see
system.mem_ctrls.wrQLenPdf::46                      0                       # What write queue length does an incoming req see
system.mem_ctrls.wrQLenPdf::47                      0                       # What write queue length does an incoming req see
system.mem_ctrls.wrQLenPdf::48                      0                       # What write queue length does an incoming req see
system.mem_ctrls.wrQLenPdf::49                      0                       # What write queue length does an incoming req see
system.mem_ctrls.wrQLenPdf::50                      0                       # What write queue length does an incoming req see
system.mem_ctrls.wrQLenPdf::51                      0                       # What write queue length does an incoming req see
system.mem_ctrls.wrQLenPdf::52                      0                       # What write queue length does an incoming req see
system.mem_ctrls.wrQLenPdf::53                      0                       # What write queue length does an incoming req see
system.mem_ctrls.wrQLenPdf::54                      0                       # What write queue length does an incoming req see
system.mem_ctrls.wrQLenPdf::55                      0                       # What write queue length does an incoming req see
system.mem_ctrls.wrQLenPdf::56                      0                       # What write queue length does an incoming req see
system.mem_ctrls.wrQLenPdf::57                      0                       # What write queue length does an incoming req see
system.mem_ctrls.wrQLenPdf::58                      0                       # What write queue length does an incoming req see
system.mem_ctrls.wrQLenPdf::59                      0                       # What write queue length does an incoming req see
system.mem_ctrls.wrQLenPdf::60                      0                       # What write queue length does an incoming req see
system.mem_ctrls.wrQLenPdf::61                      0                       # What write queue length does an incoming req see
system.mem_ctrls.wrQLenPdf::62                      0                       # What write queue length does an incoming req see
system.mem_ctrls.wrQLenPdf::63                      0                       # What write queue length does an incoming req see
system.mem_ctrls.bytesPerActivate::samples      5551450                       # Bytes accessed per row activation
system.mem_ctrls.bytesPerActivate::mean     72.197527                       # Bytes accessed per row activation
system.mem_ctrls.bytesPerActivate::gmean    68.789082                       # Bytes accessed per row activation
system.mem_ctrls.bytesPerActivate::stdev    43.190181                       # Bytes accessed per row activation
system.mem_ctrls.bytesPerActivate::0-127      5042916     90.84%     90.84% # Bytes accessed per row activation
system.mem_ctrls.bytesPerActivate::128-255       479629      8.64%     99.48% # Bytes accessed per row activation
system.mem_ctrls.bytesPerActivate::256-383        14831      0.27%     99.75% # Bytes accessed per row activation
system.mem_ctrls.bytesPerActivate::384-511         5482      0.10%     99.85% # Bytes accessed per row activation
system.mem_ctrls.bytesPerActivate::512-639          605      0.01%     99.86% # Bytes accessed per row activation
system.mem_ctrls.bytesPerActivate::640-767          451      0.01%     99.86% # Bytes accessed per row activation
system.mem_ctrls.bytesPerActivate::768-895          474      0.01%     99.87% # Bytes accessed per row activation
system.mem_ctrls.bytesPerActivate::896-1023          302      0.01%     99.88% # Bytes accessed per row activation
system.mem_ctrls.bytesPerActivate::1024-1151         6760      0.12%    100.00% # Bytes accessed per row activation
system.mem_ctrls.bytesPerActivate::total      5551450                       # Bytes accessed per row activation
system.mem_ctrls.rdPerTurnAround::samples       127129                       # Reads before turning the bus around for writes
system.mem_ctrls.rdPerTurnAround::mean      32.136987                       # Reads before turning the bus around for writes
system.mem_ctrls.rdPerTurnAround::stdev     23.353263                       # Reads before turning the bus around for writes
system.mem_ctrls.rdPerTurnAround::0-255        127105     99.98%     99.98% # Reads before turning the bus around for writes
system.mem_ctrls.rdPerTurnAround::256-511           16      0.01%     99.99% # Reads before turning the bus around for writes
system.mem_ctrls.rdPerTurnAround::512-767            2      0.00%    100.00% # Reads before turning the bus around for writes
system.mem_ctrls.rdPerTurnAround::768-1023            1      0.00%    100.00% # Reads before turning the bus around for writes
system.mem_ctrls.rdPerTurnAround::1536-1791            1      0.00%    100.00% # Reads before turning the bus around for writes
system.mem_ctrls.rdPerTurnAround::2304-2559            1      0.00%    100.00% # Reads before turning the bus around for writes
system.mem_ctrls.rdPerTurnAround::2560-2815            1      0.00%    100.00% # Reads before turning the bus around for writes
system.mem_ctrls.rdPerTurnAround::4096-4351            1      0.00%    100.00% # Reads before turning the bus around for writes
system.mem_ctrls.rdPerTurnAround::4608-4863            1      0.00%    100.00% # Reads before turning the bus around for writes
system.mem_ctrls.rdPerTurnAround::total        127129                       # Reads before turning the bus around for writes
system.mem_ctrls.wrPerTurnAround::samples       127129                       # Writes before turning the bus around for reads
system.mem_ctrls.wrPerTurnAround::mean      17.133856                       # Writes before turning the bus around for reads
system.mem_ctrls.wrPerTurnAround::gmean     17.096193                       # Writes before turning the bus around for reads
system.mem_ctrls.wrPerTurnAround::stdev      1.141771                       # Writes before turning the bus around for reads
system.mem_ctrls.wrPerTurnAround::16            60698     47.75%     47.75% # Writes before turning the bus around for reads
system.mem_ctrls.wrPerTurnAround::17             1587      1.25%     48.99% # Writes before turning the bus around for reads
system.mem_ctrls.wrPerTurnAround::18            53476     42.06%     91.06% # Writes before turning the bus around for reads
system.mem_ctrls.wrPerTurnAround::19            10142      7.98%     99.04% # Writes before turning the bus around for reads
system.mem_ctrls.wrPerTurnAround::20             1024      0.81%     99.84% # Writes before turning the bus around for reads
system.mem_ctrls.wrPerTurnAround::21              158      0.12%     99.97% # Writes before turning the bus around for reads
system.mem_ctrls.wrPerTurnAround::22               26      0.02%     99.99% # Writes before turning the bus around for reads
system.mem_ctrls.wrPerTurnAround::23               14      0.01%    100.00% # Writes before turning the bus around for reads
system.mem_ctrls.wrPerTurnAround::24                2      0.00%    100.00% # Writes before turning the bus around for reads
system.mem_ctrls.wrPerTurnAround::27                1      0.00%    100.00% # Writes before turning the bus around for reads
system.mem_ctrls.wrPerTurnAround::30                1      0.00%    100.00% # Writes before turning the bus around for reads
system.mem_ctrls.wrPerTurnAround::total        127129                       # Writes before turning the bus around for reads
system.mem_ctrls.totQLat                  94491056232                       # Total ticks spent queuing
system.mem_ctrls.totMemAccLat            171071981232                       # Total ticks spent from burst creation until serviced by the DRAM
system.mem_ctrls.totBusLat                20421580000                       # Total ticks spent in databus transfers
system.mem_ctrls.avgQLat                     23135.10                       # Average queueing delay per DRAM burst
system.mem_ctrls.avgBusLat                    5000.00                       # Average bus latency per DRAM burst
system.mem_ctrls.avgMemAccLat                41885.10                       # Average memory access latency per DRAM burst
system.mem_ctrls.avgRdBW                       332.24                       # Average DRAM read bandwidth in MiByte/s
system.mem_ctrls.avgWrBW                       177.19                       # Average achieved write bandwidth in MiByte/s
system.mem_ctrls.avgRdBWSys                    332.89                       # Average system read bandwidth in MiByte/s
system.mem_ctrls.avgWrBWSys                    177.19                       # Average system write bandwidth in MiByte/s
system.mem_ctrls.peakBW                      12800.00                       # Theoretical peak bandwidth in MiByte/s
system.mem_ctrls.busUtil                         3.98                       # Data bus utilization in percentage
system.mem_ctrls.busUtilRead                     2.60                       # Data bus utilization in percentage for reads
system.mem_ctrls.busUtilWrite                    1.38                       # Data bus utilization in percentage for writes
system.mem_ctrls.avgRdQLen                       1.00                       # Average read queue length when enqueuing
system.mem_ctrls.avgWrQLen                      25.00                       # Average write queue length when enqueuing
system.mem_ctrls.readRowHits                   570193                       # Number of row buffer hits during reads
system.mem_ctrls.writeRowHits                  140879                       # Number of row buffer hits during writes
system.mem_ctrls.readRowHitRate                 13.96                       # Row buffer hit rate for reads
system.mem_ctrls.writeRowHitRate                 6.47                       # Row buffer hit rate for writes
system.mem_ctrls.avgGap                     125471.92                       # Average gap between requests
system.mem_ctrls.pageHitRate                    11.35                       # Row buffer hit rate, read and write combined
system.mem_ctrls_0.actEnergy              20884515120                       # Energy for activate commands per rank (pJ)
system.mem_ctrls_0.preEnergy              11395320750                       # Energy for precharge commands per rank (pJ)
system.mem_ctrls_0.readEnergy             15964338000                       # Energy for read commands per rank (pJ)
system.mem_ctrls_0.writeEnergy             7018021440                       # Energy for write commands per rank (pJ)
system.mem_ctrls_0.refreshEnergy          51869051520                       # Energy for refresh commands per rank (pJ)
system.mem_ctrls_0.actBackEnergy         510634467225                       # Energy for active background per rank (pJ)
system.mem_ctrls_0.preBackEnergy          28556310750                       # Energy for precharge background per rank (pJ)
system.mem_ctrls_0.totalEnergy           646322024805                       # Total energy per rank (pJ)
system.mem_ctrls_0.averagePower            813.868728                       # Core power per rank (mW)
system.mem_ctrls_0.memoryStateTime::IDLE  41465916250                       # Time in different power states
system.mem_ctrls_0.memoryStateTime::REF   26271700000                       # Time in different power states
system.mem_ctrls_0.memoryStateTime::PRE_PDN            0                       # Time in different power states
system.mem_ctrls_0.memoryStateTime::ACT  719026073750                       # Time in different power states
system.mem_ctrls_0.memoryStateTime::ACT_PDN            0                       # Time in different power states
system.mem_ctrls_1.actEnergy              21125210400                       # Energy for activate commands per rank (pJ)
system.mem_ctrls_1.preEnergy              11526652500                       # Energy for precharge commands per rank (pJ)
system.mem_ctrls_1.readEnergy             16110400800                       # Energy for read commands per rank (pJ)
system.mem_ctrls_1.writeEnergy             7098807600                       # Energy for write commands per rank (pJ)
system.mem_ctrls_1.refreshEnergy          51869051520                       # Energy for refresh commands per rank (pJ)
system.mem_ctrls_1.actBackEnergy         512165803860                       # Energy for active background per rank (pJ)
system.mem_ctrls_1.preBackEnergy          27213033000                       # Energy for precharge background per rank (pJ)
system.mem_ctrls_1.totalEnergy           647108959680                       # Total energy per rank (pJ)
system.mem_ctrls_1.averagePower            814.859661                       # Core power per rank (mW)
system.mem_ctrls_1.memoryStateTime::IDLE  39011804500                       # Time in different power states
system.mem_ctrls_1.memoryStateTime::REF   26271700000                       # Time in different power states
system.mem_ctrls_1.memoryStateTime::PRE_PDN            0                       # Time in different power states
system.mem_ctrls_1.memoryStateTime::ACT  721478248250                       # Time in different power states
system.mem_ctrls_1.memoryStateTime::ACT_PDN            0                       # Time in different power states
system.cpu_voltage_domain.voltage                   1                       # Voltage in Volts
system.cpu_clk_domain.clock                       500                       # Clock period in ticks
system.cpu0.apic_clk_domain.clock                8000                       # Clock period in ticks
system.cpu0.numCycles                      1575489473                       # number of cpu cycles simulated
system.cpu0.numWorkItemsStarted                     0                       # number of work items this cpu started
system.cpu0.numWorkItemsCompleted                   0                       # number of work items this cpu completed
system.cpu0.kern.inst.arm                           0                       # number of arm instructions executed
system.cpu0.kern.inst.quiesce                       0                       # number of quiesce instructions executed
system.cpu0.committedInsts                  124218358                       # Number of instructions committed
system.cpu0.committedOps                    203556063                       # Number of ops (including micro ops) committed
system.cpu0.num_int_alu_accesses            158377391                       # Number of integer alu accesses
system.cpu0.num_fp_alu_accesses              51469713                       # Number of float alu accesses
system.cpu0.num_func_calls                    2429297                       # number of times a function call or return occured
system.cpu0.num_conditional_control_insts      7431244                       # number of instructions that are conditional controls
system.cpu0.num_int_insts                   158377391                       # number of integer instructions
system.cpu0.num_fp_insts                     51469713                       # number of float instructions
system.cpu0.num_int_register_reads          337385571                       # number of times the integer registers were read
system.cpu0.num_int_register_writes         126354851                       # number of times the integer registers were written
system.cpu0.num_fp_register_reads            96849695                       # number of times the floating registers were read
system.cpu0.num_fp_register_writes           49751788                       # number of times the floating registers were written
system.cpu0.num_cc_register_reads            81589335                       # number of times the CC registers were read
system.cpu0.num_cc_register_writes           70186178                       # number of times the CC registers were written
system.cpu0.num_mem_refs                     42499980                       # number of memory refs
system.cpu0.num_load_insts                   33918498                       # Number of load instructions
system.cpu0.num_store_insts                   8581482                       # Number of store instructions
system.cpu0.num_idle_cycles              841230941.940318                       # Number of idle cycles
system.cpu0.num_busy_cycles              734258531.059682                       # Number of busy cycles
system.cpu0.not_idle_fraction                0.466051                       # Percentage of non-idle cycles
system.cpu0.idle_fraction                    0.533949                       # Percentage of idle cycles
system.cpu0.Branches                         11823113                       # Number of branches fetched
system.cpu0.op_class::No_OpClass              1815787      0.89%      0.89% # Class of executed instruction
system.cpu0.op_class::IntAlu                117186909     57.57%     58.46% # Class of executed instruction
system.cpu0.op_class::IntMult                    4004      0.00%     58.46% # Class of executed instruction
system.cpu0.op_class::IntDiv                     6222      0.00%     58.47% # Class of executed instruction
system.cpu0.op_class::FloatAdd               42045751     20.66%     79.12% # Class of executed instruction
system.cpu0.op_class::FloatCmp                      0      0.00%     79.12% # Class of executed instruction
system.cpu0.op_class::FloatCvt                      0      0.00%     79.12% # Class of executed instruction
system.cpu0.op_class::FloatMult                     0      0.00%     79.12% # Class of executed instruction
system.cpu0.op_class::FloatDiv                      0      0.00%     79.12% # Class of executed instruction
system.cpu0.op_class::FloatSqrt                     0      0.00%     79.12% # Class of executed instruction
system.cpu0.op_class::SimdAdd                       0      0.00%     79.12% # Class of executed instruction
system.cpu0.op_class::SimdAddAcc                    0      0.00%     79.12% # Class of executed instruction
system.cpu0.op_class::SimdAlu                       0      0.00%     79.12% # Class of executed instruction
system.cpu0.op_class::SimdCmp                       0      0.00%     79.12% # Class of executed instruction
system.cpu0.op_class::SimdCvt                       0      0.00%     79.12% # Class of executed instruction
system.cpu0.op_class::SimdMisc                      0      0.00%     79.12% # Class of executed instruction
system.cpu0.op_class::SimdMult                      0      0.00%     79.12% # Class of executed instruction
system.cpu0.op_class::SimdMultAcc                   0      0.00%     79.12% # Class of executed instruction
system.cpu0.op_class::SimdShift                     0      0.00%     79.12% # Class of executed instruction
system.cpu0.op_class::SimdShiftAcc                  0      0.00%     79.12% # Class of executed instruction
system.cpu0.op_class::SimdSqrt                      0      0.00%     79.12% # Class of executed instruction
system.cpu0.op_class::SimdFloatAdd                  0      0.00%     79.12% # Class of executed instruction
system.cpu0.op_class::SimdFloatAlu                  0      0.00%     79.12% # Class of executed instruction
system.cpu0.op_class::SimdFloatCmp                  0      0.00%     79.12% # Class of executed instruction
system.cpu0.op_class::SimdFloatCvt                  0      0.00%     79.12% # Class of executed instruction
system.cpu0.op_class::SimdFloatDiv                  0      0.00%     79.12% # Class of executed instruction
system.cpu0.op_class::SimdFloatMisc                 0      0.00%     79.12% # Class of executed instruction
system.cpu0.op_class::SimdFloatMult                 0      0.00%     79.12% # Class of executed instruction
system.cpu0.op_class::SimdFloatMultAcc              0      0.00%     79.12% # Class of executed instruction
system.cpu0.op_class::SimdFloatSqrt                 0      0.00%     79.12% # Class of executed instruction
system.cpu0.op_class::MemRead                33918498     16.66%     95.78% # Class of executed instruction
system.cpu0.op_class::MemWrite                8581482      4.22%    100.00% # Class of executed instruction
system.cpu0.op_class::IprAccess                     0      0.00%    100.00% # Class of executed instruction
system.cpu0.op_class::InstPrefetch                  0      0.00%    100.00% # Class of executed instruction
system.cpu0.op_class::total                 203558653                       # Class of executed instruction
system.cpu1.apic_clk_domain.clock                8000                       # Clock period in ticks
system.cpu1.numCycles                      1567993761                       # number of cpu cycles simulated
system.cpu1.numWorkItemsStarted                     0                       # number of work items this cpu started
system.cpu1.numWorkItemsCompleted                   0                       # number of work items this cpu completed
system.cpu1.kern.inst.arm                           0                       # number of arm instructions executed
system.cpu1.kern.inst.quiesce                       0                       # number of quiesce instructions executed
system.cpu1.committedInsts                  148745686                       # Number of instructions committed
system.cpu1.committedOps                    246402433                       # Number of ops (including micro ops) committed
system.cpu1.num_int_alu_accesses            195400777                       # Number of integer alu accesses
system.cpu1.num_fp_alu_accesses              58118345                       # Number of float alu accesses
system.cpu1.num_func_calls                    3108698                       # number of times a function call or return occured
system.cpu1.num_conditional_control_insts      9616570                       # number of instructions that are conditional controls
system.cpu1.num_int_insts                   195400777                       # number of integer instructions
system.cpu1.num_fp_insts                     58118345                       # number of float instructions
system.cpu1.num_int_register_reads          413745476                       # number of times the integer registers were read
system.cpu1.num_int_register_writes         155641298                       # number of times the integer registers were written
system.cpu1.num_fp_register_reads           107757472                       # number of times the floating registers were read
system.cpu1.num_fp_register_writes           55884815                       # number of times the floating registers were written
system.cpu1.num_cc_register_reads           100510928                       # number of times the CC registers were read
system.cpu1.num_cc_register_writes           85341827                       # number of times the CC registers were written
system.cpu1.num_mem_refs                     51819051                       # number of memory refs
system.cpu1.num_load_insts                   40844276                       # Number of load instructions
system.cpu1.num_store_insts                  10974775                       # Number of store instructions
system.cpu1.num_idle_cycles              731081146.242267                       # Number of idle cycles
system.cpu1.num_busy_cycles              836912614.757733                       # Number of busy cycles
system.cpu1.not_idle_fraction                0.533747                       # Percentage of non-idle cycles
system.cpu1.idle_fraction                    0.466253                       # Percentage of idle cycles
system.cpu1.Branches                         15514123                       # Number of branches fetched
system.cpu1.op_class::No_OpClass              2152873      0.87%      0.87% # Class of executed instruction
system.cpu1.op_class::IntAlu                143451677     58.22%     59.09% # Class of executed instruction
system.cpu1.op_class::IntMult                    7501      0.00%     59.10% # Class of executed instruction
system.cpu1.op_class::IntDiv                     5077      0.00%     59.10% # Class of executed instruction
system.cpu1.op_class::FloatAdd               48966817     19.87%     78.97% # Class of executed instruction
system.cpu1.op_class::FloatCmp                      0      0.00%     78.97% # Class of executed instruction
system.cpu1.op_class::FloatCvt                      0      0.00%     78.97% # Class of executed instruction
system.cpu1.op_class::FloatMult                     0      0.00%     78.97% # Class of executed instruction
system.cpu1.op_class::FloatDiv                      0      0.00%     78.97% # Class of executed instruction
system.cpu1.op_class::FloatSqrt                     0      0.00%     78.97% # Class of executed instruction
system.cpu1.op_class::SimdAdd                       0      0.00%     78.97% # Class of executed instruction
system.cpu1.op_class::SimdAddAcc                    0      0.00%     78.97% # Class of executed instruction
system.cpu1.op_class::SimdAlu                       0      0.00%     78.97% # Class of executed instruction
system.cpu1.op_class::SimdCmp                       0      0.00%     78.97% # Class of executed instruction
system.cpu1.op_class::SimdCvt                       0      0.00%     78.97% # Class of executed instruction
system.cpu1.op_class::SimdMisc                      0      0.00%     78.97% # Class of executed instruction
system.cpu1.op_class::SimdMult                      0      0.00%     78.97% # Class of executed instruction
system.cpu1.op_class::SimdMultAcc                   0      0.00%     78.97% # Class of executed instruction
system.cpu1.op_class::SimdShift                     0      0.00%     78.97% # Class of executed instruction
system.cpu1.op_class::SimdShiftAcc                  0      0.00%     78.97% # Class of executed instruction
system.cpu1.op_class::SimdSqrt                      0      0.00%     78.97% # Class of executed instruction
system.cpu1.op_class::SimdFloatAdd                  0      0.00%     78.97% # Class of executed instruction
system.cpu1.op_class::SimdFloatAlu                  0      0.00%     78.97% # Class of executed instruction
system.cpu1.op_class::SimdFloatCmp                  0      0.00%     78.97% # Class of executed instruction
system.cpu1.op_class::SimdFloatCvt                  0      0.00%     78.97% # Class of executed instruction
system.cpu1.op_class::SimdFloatDiv                  0      0.00%     78.97% # Class of executed instruction
system.cpu1.op_class::SimdFloatMisc                 0      0.00%     78.97% # Class of executed instruction
system.cpu1.op_class::SimdFloatMult                 0      0.00%     78.97% # Class of executed instruction
system.cpu1.op_class::SimdFloatMultAcc              0      0.00%     78.97% # Class of executed instruction
system.cpu1.op_class::SimdFloatSqrt                 0      0.00%     78.97% # Class of executed instruction
system.cpu1.op_class::MemRead                40844276     16.58%     95.55% # Class of executed instruction
system.cpu1.op_class::MemWrite               10974775      4.45%    100.00% # Class of executed instruction
system.cpu1.op_class::IprAccess                     0      0.00%    100.00% # Class of executed instruction
system.cpu1.op_class::InstPrefetch                  0      0.00%    100.00% # Class of executed instruction
system.cpu1.op_class::total                 246402996                       # Class of executed instruction
system.cpu2.apic_clk_domain.clock                8000                       # Clock period in ticks
system.cpu2.numCycles                      1571519792                       # number of cpu cycles simulated
system.cpu2.numWorkItemsStarted                     0                       # number of work items this cpu started
system.cpu2.numWorkItemsCompleted                   0                       # number of work items this cpu completed
system.cpu2.kern.inst.arm                           0                       # number of arm instructions executed
system.cpu2.kern.inst.quiesce                       0                       # number of quiesce instructions executed
system.cpu2.committedInsts                    2738383                       # Number of instructions committed
system.cpu2.committedOps                      5393386                       # Number of ops (including micro ops) committed
system.cpu2.num_int_alu_accesses              5308039                       # Number of integer alu accesses
system.cpu2.num_fp_alu_accesses                  1796                       # Number of float alu accesses
system.cpu2.num_func_calls                     131748                       # number of times a function call or return occured
system.cpu2.num_conditional_control_insts       492386                       # number of instructions that are conditional controls
system.cpu2.num_int_insts                     5308039                       # number of integer instructions
system.cpu2.num_fp_insts                         1796                       # number of float instructions
system.cpu2.num_int_register_reads           10402710                       # number of times the integer registers were read
system.cpu2.num_int_register_writes           4296585                       # number of times the integer registers were written
system.cpu2.num_fp_register_reads                3020                       # number of times the floating registers were read
system.cpu2.num_fp_register_writes               1428                       # number of times the floating registers were written
system.cpu2.num_cc_register_reads             3567696                       # number of times the CC registers were read
system.cpu2.num_cc_register_writes            1902186                       # number of times the CC registers were written
system.cpu2.num_mem_refs                      1154670                       # number of memory refs
system.cpu2.num_load_insts                     748629                       # Number of load instructions
system.cpu2.num_store_insts                    406041                       # Number of store instructions
system.cpu2.num_idle_cycles              1560611710.888329                       # Number of idle cycles
system.cpu2.num_busy_cycles              10908081.111671                       # Number of busy cycles
system.cpu2.not_idle_fraction                0.006941                       # Percentage of non-idle cycles
system.cpu2.idle_fraction                    0.993059                       # Percentage of idle cycles
system.cpu2.Branches                           647985                       # Number of branches fetched
system.cpu2.op_class::No_OpClass                28511      0.53%      0.53% # Class of executed instruction
system.cpu2.op_class::IntAlu                  4196800     77.81%     78.34% # Class of executed instruction
system.cpu2.op_class::IntMult                    3937      0.07%     78.41% # Class of executed instruction
system.cpu2.op_class::IntDiv                     8202      0.15%     78.57% # Class of executed instruction
system.cpu2.op_class::FloatAdd                   1356      0.03%     78.59% # Class of executed instruction
system.cpu2.op_class::FloatCmp                      0      0.00%     78.59% # Class of executed instruction
system.cpu2.op_class::FloatCvt                      0      0.00%     78.59% # Class of executed instruction
system.cpu2.op_class::FloatMult                     0      0.00%     78.59% # Class of executed instruction
system.cpu2.op_class::FloatDiv                      0      0.00%     78.59% # Class of executed instruction
system.cpu2.op_class::FloatSqrt                     0      0.00%     78.59% # Class of executed instruction
system.cpu2.op_class::SimdAdd                       0      0.00%     78.59% # Class of executed instruction
system.cpu2.op_class::SimdAddAcc                    0      0.00%     78.59% # Class of executed instruction
system.cpu2.op_class::SimdAlu                       0      0.00%     78.59% # Class of executed instruction
system.cpu2.op_class::SimdCmp                       0      0.00%     78.59% # Class of executed instruction
system.cpu2.op_class::SimdCvt                       0      0.00%     78.59% # Class of executed instruction
system.cpu2.op_class::SimdMisc                      0      0.00%     78.59% # Class of executed instruction
system.cpu2.op_class::SimdMult                      0      0.00%     78.59% # Class of executed instruction
system.cpu2.op_class::SimdMultAcc                   0      0.00%     78.59% # Class of executed instruction
system.cpu2.op_class::SimdShift                     0      0.00%     78.59% # Class of executed instruction
system.cpu2.op_class::SimdShiftAcc                  0      0.00%     78.59% # Class of executed instruction
system.cpu2.op_class::SimdSqrt                      0      0.00%     78.59% # Class of executed instruction
system.cpu2.op_class::SimdFloatAdd                  0      0.00%     78.59% # Class of executed instruction
system.cpu2.op_class::SimdFloatAlu                  0      0.00%     78.59% # Class of executed instruction
system.cpu2.op_class::SimdFloatCmp                  0      0.00%     78.59% # Class of executed instruction
system.cpu2.op_class::SimdFloatCvt                  0      0.00%     78.59% # Class of executed instruction
system.cpu2.op_class::SimdFloatDiv                  0      0.00%     78.59% # Class of executed instruction
system.cpu2.op_class::SimdFloatMisc                 0      0.00%     78.59% # Class of executed instruction
system.cpu2.op_class::SimdFloatMult                 0      0.00%     78.59% # Class of executed instruction
system.cpu2.op_class::SimdFloatMultAcc              0      0.00%     78.59% # Class of executed instruction
system.cpu2.op_class::SimdFloatSqrt                 0      0.00%     78.59% # Class of executed instruction
system.cpu2.op_class::MemRead                  748629     13.88%     92.47% # Class of executed instruction
system.cpu2.op_class::MemWrite                 406041      7.53%    100.00% # Class of executed instruction
system.cpu2.op_class::IprAccess                     0      0.00%    100.00% # Class of executed instruction
system.cpu2.op_class::InstPrefetch                  0      0.00%    100.00% # Class of executed instruction
system.cpu2.op_class::total                   5393476                       # Class of executed instruction
system.cpu3.apic_clk_domain.clock                8000                       # Clock period in ticks
system.cpu3.numCycles                      1577877521                       # number of cpu cycles simulated
system.cpu3.numWorkItemsStarted                     0                       # number of work items this cpu started
system.cpu3.numWorkItemsCompleted                   0                       # number of work items this cpu completed
system.cpu3.kern.inst.arm                           0                       # number of arm instructions executed
system.cpu3.kern.inst.quiesce                       0                       # number of quiesce instructions executed
system.cpu3.committedInsts                     914239                       # Number of instructions committed
system.cpu3.committedOps                      1894598                       # Number of ops (including micro ops) committed
system.cpu3.num_int_alu_accesses              1863625                       # Number of integer alu accesses
system.cpu3.num_fp_alu_accesses                   404                       # Number of float alu accesses
system.cpu3.num_func_calls                      47786                       # number of times a function call or return occured
system.cpu3.num_conditional_control_insts       168155                       # number of instructions that are conditional controls
system.cpu3.num_int_insts                     1863625                       # number of integer instructions
system.cpu3.num_fp_insts                          404                       # number of float instructions
system.cpu3.num_int_register_reads            3613794                       # number of times the integer registers were read
system.cpu3.num_int_register_writes           1519119                       # number of times the integer registers were written
system.cpu3.num_fp_register_reads                 712                       # number of times the floating registers were read
system.cpu3.num_fp_register_writes                364                       # number of times the floating registers were written
system.cpu3.num_cc_register_reads             1219696                       # number of times the CC registers were read
system.cpu3.num_cc_register_writes             621981                       # number of times the CC registers were written
system.cpu3.num_mem_refs                       393898                       # number of memory refs
system.cpu3.num_load_insts                     246514                       # Number of load instructions
system.cpu3.num_store_insts                    147384                       # Number of store instructions
system.cpu3.num_idle_cycles              1574047596.071433                       # Number of idle cycles
system.cpu3.num_busy_cycles              3829924.928567                       # Number of busy cycles
system.cpu3.not_idle_fraction                0.002427                       # Percentage of non-idle cycles
system.cpu3.idle_fraction                    0.997573                       # Percentage of idle cycles
system.cpu3.Branches                           230279                       # Number of branches fetched
system.cpu3.op_class::No_OpClass                21186      1.12%      1.12% # Class of executed instruction
system.cpu3.op_class::IntAlu                  1469132     77.54%     78.66% # Class of executed instruction
system.cpu3.op_class::IntMult                    3706      0.20%     78.86% # Class of executed instruction
system.cpu3.op_class::IntDiv                     6391      0.34%     79.19% # Class of executed instruction
system.cpu3.op_class::FloatAdd                    320      0.02%     79.21% # Class of executed instruction
system.cpu3.op_class::FloatCmp                      0      0.00%     79.21% # Class of executed instruction
system.cpu3.op_class::FloatCvt                      0      0.00%     79.21% # Class of executed instruction
system.cpu3.op_class::FloatMult                     0      0.00%     79.21% # Class of executed instruction
system.cpu3.op_class::FloatDiv                      0      0.00%     79.21% # Class of executed instruction
system.cpu3.op_class::FloatSqrt                     0      0.00%     79.21% # Class of executed instruction
system.cpu3.op_class::SimdAdd                       0      0.00%     79.21% # Class of executed instruction
system.cpu3.op_class::SimdAddAcc                    0      0.00%     79.21% # Class of executed instruction
system.cpu3.op_class::SimdAlu                       0      0.00%     79.21% # Class of executed instruction
system.cpu3.op_class::SimdCmp                       0      0.00%     79.21% # Class of executed instruction
system.cpu3.op_class::SimdCvt                       0      0.00%     79.21% # Class of executed instruction
system.cpu3.op_class::SimdMisc                      0      0.00%     79.21% # Class of executed instruction
system.cpu3.op_class::SimdMult                      0      0.00%     79.21% # Class of executed instruction
system.cpu3.op_class::SimdMultAcc                   0      0.00%     79.21% # Class of executed instruction
system.cpu3.op_class::SimdShift                     0      0.00%     79.21% # Class of executed instruction
system.cpu3.op_class::SimdShiftAcc                  0      0.00%     79.21% # Class of executed instruction
system.cpu3.op_class::SimdSqrt                      0      0.00%     79.21% # Class of executed instruction
system.cpu3.op_class::SimdFloatAdd                  0      0.00%     79.21% # Class of executed instruction
system.cpu3.op_class::SimdFloatAlu                  0      0.00%     79.21% # Class of executed instruction
system.cpu3.op_class::SimdFloatCmp                  0      0.00%     79.21% # Class of executed instruction
system.cpu3.op_class::SimdFloatCvt                  0      0.00%     79.21% # Class of executed instruction
system.cpu3.op_class::SimdFloatDiv                  0      0.00%     79.21% # Class of executed instruction
system.cpu3.op_class::SimdFloatMisc                 0      0.00%     79.21% # Class of executed instruction
system.cpu3.op_class::SimdFloatMult                 0      0.00%     79.21% # Class of executed instruction
system.cpu3.op_class::SimdFloatMultAcc              0      0.00%     79.21% # Class of executed instruction
system.cpu3.op_class::SimdFloatSqrt                 0      0.00%     79.21% # Class of executed instruction
system.cpu3.op_class::MemRead                  246514     13.01%     92.22% # Class of executed instruction
system.cpu3.op_class::MemWrite                 147384      7.78%    100.00% # Class of executed instruction
system.cpu3.op_class::IprAccess                     0      0.00%    100.00% # Class of executed instruction
system.cpu3.op_class::InstPrefetch                  0      0.00%    100.00% # Class of executed instruction
system.cpu3.op_class::total                   1894633                       # Class of executed instruction
system.iobus.trans_dist::ReadReq                  564                       # Transaction distribution
system.iobus.trans_dist::ReadResp                 564                       # Transaction distribution
system.iobus.trans_dist::WriteReq                1821                       # Transaction distribution
system.iobus.trans_dist::WriteResp               1821                       # Transaction distribution
system.iobus.trans_dist::MessageReq                77                       # Transaction distribution
system.iobus.trans_dist::MessageResp               77                       # Transaction distribution
system.iobus.pkt_count_system.pc.south_bridge.io_apic.int_master::system.ruby.l1_cntrl0.sequencer.pio-slave-port           32                       # Packet count per connected master and slave (bytes)
system.iobus.pkt_count_system.pc.south_bridge.io_apic.int_master::system.ruby.l1_cntrl1.sequencer.pio-slave-port           32                       # Packet count per connected master and slave (bytes)
system.iobus.pkt_count_system.pc.south_bridge.io_apic.int_master::system.ruby.l1_cntrl2.sequencer.pio-slave-port           30                       # Packet count per connected master and slave (bytes)
system.iobus.pkt_count_system.pc.south_bridge.io_apic.int_master::system.ruby.l1_cntrl3.sequencer.pio-slave-port           32                       # Packet count per connected master and slave (bytes)
system.iobus.pkt_count_system.pc.south_bridge.io_apic.int_master::total          126                       # Packet count per connected master and slave (bytes)
system.iobus.pkt_count_system.ruby.l1_cntrl0.sequencer.mem-master-port::system.pc.south_bridge.ide.pio          622                       # Packet count per connected master and slave (bytes)
system.iobus.pkt_count_system.ruby.l1_cntrl0.sequencer.mem-master-port::system.pc.south_bridge.io_apic.pio            8                       # Packet count per connected master and slave (bytes)
system.iobus.pkt_count_system.ruby.l1_cntrl0.sequencer.mem-master-port::system.pc.com_1.pio            2                       # Packet count per connected master and slave (bytes)
system.iobus.pkt_count_system.ruby.l1_cntrl0.sequencer.mem-master-port::system.ruby.l1_cntrl0.sequencer.pio-slave-port          466                       # Packet count per connected master and slave (bytes)
system.iobus.pkt_count_system.ruby.l1_cntrl0.sequencer.mem-master-port::system.ruby.l1_cntrl1.sequencer.pio-slave-port            6                       # Packet count per connected master and slave (bytes)
system.iobus.pkt_count_system.ruby.l1_cntrl0.sequencer.mem-master-port::system.ruby.l1_cntrl3.sequencer.pio-slave-port            4                       # Packet count per connected master and slave (bytes)
system.iobus.pkt_count_system.ruby.l1_cntrl0.sequencer.mem-master-port::total         1108                       # Packet count per connected master and slave (bytes)
system.iobus.pkt_count_system.ruby.l1_cntrl1.sequencer.mem-master-port::system.pc.south_bridge.ide.pio          962                       # Packet count per connected master and slave (bytes)
system.iobus.pkt_count_system.ruby.l1_cntrl1.sequencer.mem-master-port::system.pc.south_bridge.io_apic.pio            8                       # Packet count per connected master and slave (bytes)
system.iobus.pkt_count_system.ruby.l1_cntrl1.sequencer.mem-master-port::system.ruby.l1_cntrl0.sequencer.pio-slave-port            6                       # Packet count per connected master and slave (bytes)
system.iobus.pkt_count_system.ruby.l1_cntrl1.sequencer.mem-master-port::system.ruby.l1_cntrl1.sequencer.pio-slave-port          458                       # Packet count per connected master and slave (bytes)
system.iobus.pkt_count_system.ruby.l1_cntrl1.sequencer.mem-master-port::system.ruby.l1_cntrl2.sequencer.pio-slave-port            2                       # Packet count per connected master and slave (bytes)
system.iobus.pkt_count_system.ruby.l1_cntrl1.sequencer.mem-master-port::total         1436                       # Packet count per connected master and slave (bytes)
system.iobus.pkt_count_system.ruby.l1_cntrl2.sequencer.mem-master-port::system.pc.south_bridge.ide.pio          588                       # Packet count per connected master and slave (bytes)
system.iobus.pkt_count_system.ruby.l1_cntrl2.sequencer.mem-master-port::system.ruby.l1_cntrl0.sequencer.pio-slave-port            2                       # Packet count per connected master and slave (bytes)
system.iobus.pkt_count_system.ruby.l1_cntrl2.sequencer.mem-master-port::system.ruby.l1_cntrl1.sequencer.pio-slave-port            2                       # Packet count per connected master and slave (bytes)
system.iobus.pkt_count_system.ruby.l1_cntrl2.sequencer.mem-master-port::system.ruby.l1_cntrl2.sequencer.pio-slave-port          444                       # Packet count per connected master and slave (bytes)
system.iobus.pkt_count_system.ruby.l1_cntrl2.sequencer.mem-master-port::system.ruby.l1_cntrl3.sequencer.pio-slave-port            2                       # Packet count per connected master and slave (bytes)
system.iobus.pkt_count_system.ruby.l1_cntrl2.sequencer.mem-master-port::total         1038                       # Packet count per connected master and slave (bytes)
system.iobus.pkt_count_system.ruby.l1_cntrl3.sequencer.mem-master-port::system.pc.south_bridge.ide.pio          588                       # Packet count per connected master and slave (bytes)
system.iobus.pkt_count_system.ruby.l1_cntrl3.sequencer.mem-master-port::system.pc.south_bridge.io_apic.pio            6                       # Packet count per connected master and slave (bytes)
system.iobus.pkt_count_system.ruby.l1_cntrl3.sequencer.mem-master-port::system.pc.com_1.pio          174                       # Packet count per connected master and slave (bytes)
system.iobus.pkt_count_system.ruby.l1_cntrl3.sequencer.mem-master-port::system.ruby.l1_cntrl0.sequencer.pio-slave-port            2                       # Packet count per connected master and slave (bytes)
system.iobus.pkt_count_system.ruby.l1_cntrl3.sequencer.mem-master-port::system.ruby.l1_cntrl1.sequencer.pio-slave-port            2                       # Packet count per connected master and slave (bytes)
system.iobus.pkt_count_system.ruby.l1_cntrl3.sequencer.mem-master-port::system.ruby.l1_cntrl3.sequencer.pio-slave-port          444                       # Packet count per connected master and slave (bytes)
system.iobus.pkt_count_system.ruby.l1_cntrl3.sequencer.mem-master-port::total         1216                       # Packet count per connected master and slave (bytes)
system.iobus.pkt_count::total                    4924                       # Packet count per connected master and slave (bytes)
system.iobus.pkt_size_system.pc.south_bridge.io_apic.int_master::system.ruby.l1_cntrl0.sequencer.pio-slave-port           64                       # Cumulative packet size per connected master and slave (bytes)
system.iobus.pkt_size_system.pc.south_bridge.io_apic.int_master::system.ruby.l1_cntrl1.sequencer.pio-slave-port           64                       # Cumulative packet size per connected master and slave (bytes)
system.iobus.pkt_size_system.pc.south_bridge.io_apic.int_master::system.ruby.l1_cntrl2.sequencer.pio-slave-port           60                       # Cumulative packet size per connected master and slave (bytes)
system.iobus.pkt_size_system.pc.south_bridge.io_apic.int_master::system.ruby.l1_cntrl3.sequencer.pio-slave-port           64                       # Cumulative packet size per connected master and slave (bytes)
system.iobus.pkt_size_system.pc.south_bridge.io_apic.int_master::total          252                       # Cumulative packet size per connected master and slave (bytes)
system.iobus.pkt_size_system.ruby.l1_cntrl0.sequencer.mem-master-port::system.pc.south_bridge.ide.pio          350                       # Cumulative packet size per connected master and slave (bytes)
system.iobus.pkt_size_system.ruby.l1_cntrl0.sequencer.mem-master-port::system.pc.south_bridge.io_apic.pio           16                       # Cumulative packet size per connected master and slave (bytes)
system.iobus.pkt_size_system.ruby.l1_cntrl0.sequencer.mem-master-port::system.pc.com_1.pio            1                       # Cumulative packet size per connected master and slave (bytes)
system.iobus.pkt_size_system.ruby.l1_cntrl0.sequencer.mem-master-port::system.ruby.l1_cntrl0.sequencer.pio-slave-port          932                       # Cumulative packet size per connected master and slave (bytes)
system.iobus.pkt_size_system.ruby.l1_cntrl0.sequencer.mem-master-port::system.ruby.l1_cntrl1.sequencer.pio-slave-port           12                       # Cumulative packet size per connected master and slave (bytes)
system.iobus.pkt_size_system.ruby.l1_cntrl0.sequencer.mem-master-port::system.ruby.l1_cntrl3.sequencer.pio-slave-port            8                       # Cumulative packet size per connected master and slave (bytes)
system.iobus.pkt_size_system.ruby.l1_cntrl0.sequencer.mem-master-port::total         1319                       # Cumulative packet size per connected master and slave (bytes)
system.iobus.pkt_size_system.ruby.l1_cntrl1.sequencer.mem-master-port::system.pc.south_bridge.ide.pio          550                       # Cumulative packet size per connected master and slave (bytes)
system.iobus.pkt_size_system.ruby.l1_cntrl1.sequencer.mem-master-port::system.pc.south_bridge.io_apic.pio           16                       # Cumulative packet size per connected master and slave (bytes)
system.iobus.pkt_size_system.ruby.l1_cntrl1.sequencer.mem-master-port::system.ruby.l1_cntrl0.sequencer.pio-slave-port           12                       # Cumulative packet size per connected master and slave (bytes)
system.iobus.pkt_size_system.ruby.l1_cntrl1.sequencer.mem-master-port::system.ruby.l1_cntrl1.sequencer.pio-slave-port          916                       # Cumulative packet size per connected master and slave (bytes)
system.iobus.pkt_size_system.ruby.l1_cntrl1.sequencer.mem-master-port::system.ruby.l1_cntrl2.sequencer.pio-slave-port            4                       # Cumulative packet size per connected master and slave (bytes)
system.iobus.pkt_size_system.ruby.l1_cntrl1.sequencer.mem-master-port::total         1498                       # Cumulative packet size per connected master and slave (bytes)
system.iobus.pkt_size_system.ruby.l1_cntrl2.sequencer.mem-master-port::system.pc.south_bridge.ide.pio          330                       # Cumulative packet size per connected master and slave (bytes)
system.iobus.pkt_size_system.ruby.l1_cntrl2.sequencer.mem-master-port::system.ruby.l1_cntrl0.sequencer.pio-slave-port            4                       # Cumulative packet size per connected master and slave (bytes)
system.iobus.pkt_size_system.ruby.l1_cntrl2.sequencer.mem-master-port::system.ruby.l1_cntrl1.sequencer.pio-slave-port            4                       # Cumulative packet size per connected master and slave (bytes)
system.iobus.pkt_size_system.ruby.l1_cntrl2.sequencer.mem-master-port::system.ruby.l1_cntrl2.sequencer.pio-slave-port          888                       # Cumulative packet size per connected master and slave (bytes)
system.iobus.pkt_size_system.ruby.l1_cntrl2.sequencer.mem-master-port::system.ruby.l1_cntrl3.sequencer.pio-slave-port            4                       # Cumulative packet size per connected master and slave (bytes)
system.iobus.pkt_size_system.ruby.l1_cntrl2.sequencer.mem-master-port::total         1230                       # Cumulative packet size per connected master and slave (bytes)
system.iobus.pkt_size_system.ruby.l1_cntrl3.sequencer.mem-master-port::system.pc.south_bridge.ide.pio          330                       # Cumulative packet size per connected master and slave (bytes)
system.iobus.pkt_size_system.ruby.l1_cntrl3.sequencer.mem-master-port::system.pc.south_bridge.io_apic.pio           12                       # Cumulative packet size per connected master and slave (bytes)
system.iobus.pkt_size_system.ruby.l1_cntrl3.sequencer.mem-master-port::system.pc.com_1.pio           87                       # Cumulative packet size per connected master and slave (bytes)
system.iobus.pkt_size_system.ruby.l1_cntrl3.sequencer.mem-master-port::system.ruby.l1_cntrl0.sequencer.pio-slave-port            4                       # Cumulative packet size per connected master and slave (bytes)
system.iobus.pkt_size_system.ruby.l1_cntrl3.sequencer.mem-master-port::system.ruby.l1_cntrl1.sequencer.pio-slave-port            4                       # Cumulative packet size per connected master and slave (bytes)
system.iobus.pkt_size_system.ruby.l1_cntrl3.sequencer.mem-master-port::system.ruby.l1_cntrl3.sequencer.pio-slave-port          888                       # Cumulative packet size per connected master and slave (bytes)
system.iobus.pkt_size_system.ruby.l1_cntrl3.sequencer.mem-master-port::total         1325                       # Cumulative packet size per connected master and slave (bytes)
system.iobus.pkt_size::total                     5624                       # Cumulative packet size per connected master and slave (bytes)
system.iobus.reqLayer2.occupancy              2368000                       # Layer occupancy (ticks)
system.iobus.reqLayer2.utilization                0.0                       # Layer utilization (%)
system.iobus.reqLayer8.occupancy                20497                       # Layer occupancy (ticks)
system.iobus.reqLayer8.utilization                0.0                       # Layer utilization (%)
system.iobus.reqLayer12.occupancy              112000                       # Layer occupancy (ticks)
system.iobus.reqLayer12.utilization               0.0                       # Layer utilization (%)
system.iobus.reqLayer17.occupancy              650880                       # Layer occupancy (ticks)
system.iobus.reqLayer17.utilization               0.0                       # Layer utilization (%)
system.iobus.reqLayer18.occupancy              638879                       # Layer occupancy (ticks)
system.iobus.reqLayer18.utilization               0.0                       # Layer utilization (%)
system.iobus.reqLayer19.occupancy              588983                       # Layer occupancy (ticks)
system.iobus.reqLayer19.utilization               0.0                       # Layer utilization (%)
system.iobus.reqLayer20.occupancy              593485                       # Layer occupancy (ticks)
system.iobus.reqLayer20.utilization               0.0                       # Layer utilization (%)
system.iobus.respLayer0.occupancy              112940                       # Layer occupancy (ticks)
system.iobus.respLayer0.utilization               0.0                       # Layer utilization (%)
system.iobus.respLayer2.occupancy              790000                       # Layer occupancy (ticks)
system.iobus.respLayer2.utilization               0.0                       # Layer utilization (%)
system.iobus.respLayer4.occupancy              991000                       # Layer occupancy (ticks)
system.iobus.respLayer4.utilization               0.0                       # Layer utilization (%)
system.iobus.respLayer6.occupancy              741000                       # Layer occupancy (ticks)
system.iobus.respLayer6.utilization               0.0                       # Layer utilization (%)
system.iobus.respLayer8.occupancy              895000                       # Layer occupancy (ticks)
system.iobus.respLayer8.utilization               0.0                       # Layer utilization (%)
system.pc.south_bridge.ide.disks.dma_read_full_pages          886                       # Number of full page size DMA reads (not PRD).
system.pc.south_bridge.ide.disks.dma_read_bytes      3629056                       # Number of bytes transfered via DMA reads (not PRD).
system.pc.south_bridge.ide.disks.dma_read_txs          886                       # Number of DMA read transactions (not PRD).
system.pc.south_bridge.ide.disks.dma_write_full_pages           45                       # Number of full page size DMA writes.
system.pc.south_bridge.ide.disks.dma_write_bytes       184320                       # Number of bytes transfered via DMA writes.
system.pc.south_bridge.ide.disks.dma_write_txs           45                       # Number of DMA write transactions.
system.ruby.clk_domain.clock                      500                       # Clock period in ticks
system.ruby.outstanding_req_hist_seqr::bucket_size            1                      
system.ruby.outstanding_req_hist_seqr::max_bucket            9                      
system.ruby.outstanding_req_hist_seqr::samples    486371920                      
system.ruby.outstanding_req_hist_seqr::mean     1.000000                      
system.ruby.outstanding_req_hist_seqr::gmean     1.000000                      
system.ruby.outstanding_req_hist_seqr::stdev     0.000680                      
system.ruby.outstanding_req_hist_seqr    |           0      0.00%      0.00% |   486371695    100.00%    100.00% |         225      0.00%    100.00% |           0      0.00%    100.00% |           0      0.00%    100.00% |           0      0.00%    100.00% |           0      0.00%    100.00% |           0      0.00%    100.00% |           0      0.00%    100.00% |           0      0.00%    100.00%
system.ruby.outstanding_req_hist_seqr::total    486371920                      
system.ruby.latency_hist_seqr::bucket_size          128                      
system.ruby.latency_hist_seqr::max_bucket         1279                      
system.ruby.latency_hist_seqr::samples      486371920                      
system.ruby.latency_hist_seqr::mean          2.264249                      
system.ruby.latency_hist_seqr::gmean         1.061284                      
system.ruby.latency_hist_seqr::stdev        13.945955                      
system.ruby.latency_hist_seqr            |   484271058     99.57%     99.57% |     2006493      0.41%     99.98% |       31904      0.01%     99.99% |       20075      0.00%     99.99% |       32953      0.01%    100.00% |        8624      0.00%    100.00% |         664      0.00%    100.00% |         143      0.00%    100.00% |           6      0.00%    100.00% |           0      0.00%    100.00%
system.ruby.latency_hist_seqr::total        486371920                      
system.ruby.hit_latency_hist_seqr::bucket_size            2                      
system.ruby.hit_latency_hist_seqr::max_bucket           19                      
system.ruby.hit_latency_hist_seqr::samples    481956542                      
system.ruby.hit_latency_hist_seqr::mean      1.067125                      
[...]
system.ruby.L1Cache_Controller.O.Other_GETS::total       650978                      
system.ruby.L1Cache_Controller.M.Load    |    17653632     44.99%     44.99% |    14297415     36.44%     81.43% |     7205998     18.36%     99.79% |       81506      0.21%    100.00%
system.ruby.L1Cache_Controller.M.Load::total     39238551                      
system.ruby.L1Cache_Controller.M.Ifetch  |    19113185     22.22%     22.22% |     4238058      4.93%     27.15% |    61409186     71.39%     98.54% |     1259741      1.46%    100.00%
system.ruby.L1Cache_Controller.M.Ifetch::total     86020170                      
system.ruby.L1Cache_Controller.M.Store   |       33899      3.50%      3.50% |       29491      3.05%      6.55% |      902155     93.15%     99.70% |        2926      0.30%    100.00%
system.ruby.L1Cache_Controller.M.Store::total       968471                      
system.ruby.L1Cache_Controller.M.L2_Replacement |     1000790     29.50%     29.50% |      877379     25.86%     55.35% |     1514842     44.65%    100.00% |          21      0.00%    100.00%
system.ruby.L1Cache_Controller.M.L2_Replacement::total      3393032                      
system.ruby.L1Cache_Controller.M.L1_to_L2 |     2195360     36.05%     36.05% |     1306981     21.46%     57.51% |     2581164     42.38%     99.90% |        6352      0.10%    100.00%
system.ruby.L1Cache_Controller.M.L1_to_L2::total      6089857                      
system.ruby.L1Cache_Controller.M.Trigger_L2_to_L1D |     1178289     44.38%     44.38% |      415352     15.64%     60.02% |     1060129     39.93%     99.95% |        1328      0.05%    100.00%
system.ruby.L1Cache_Controller.M.Trigger_L2_to_L1D::total      2655098                      
system.ruby.L1Cache_Controller.M.Trigger_L2_to_L1I |        3779     43.51%     43.51% |        2435     28.04%     71.55% |        1095     12.61%     84.16% |        1376     15.84%    100.00%
system.ruby.L1Cache_Controller.M.Trigger_L2_to_L1I::total         8685                      
system.ruby.L1Cache_Controller.M.Other_GETX |        1054     26.26%     26.26% |         800     19.94%     46.20% |        1255     31.27%     77.47% |         904     22.53%    100.00%
system.ruby.L1Cache_Controller.M.Other_GETX::total         4013                      
system.ruby.L1Cache_Controller.M.Other_GETS |       14554     42.35%     42.35% |       13284     38.65%     81.00% |        3300      9.60%     90.60% |        3231      9.40%    100.00%
system.ruby.L1Cache_Controller.M.Other_GETS::total        34369                      
system.ruby.L1Cache_Controller.M.Merged_GETS |          25     58.14%     58.14% |           6     13.95%     72.09% |           5     11.63%     83.72% |           7     16.28%    100.00%
system.ruby.L1Cache_Controller.M.Merged_GETS::total           43                      
system.ruby.L1Cache_Controller.MM.Load   |     9145910     28.78%     28.78% |    10832615     34.09%     62.88% |    11249223     35.40%     98.28% |      545486      1.72%    100.00%
system.ruby.L1Cache_Controller.MM.Load::total     31773234                      
system.ruby.L1Cache_Controller.MM.Store  |    10175877     27.17%     27.17% |    12596896     33.64%     60.81% |    14069702     37.57%     98.38% |      606047      1.62%    100.00%
system.ruby.L1Cache_Controller.MM.Store::total     37448522                      
system.ruby.L1Cache_Controller.MM.L2_Replacement |      966699     22.79%     22.79% |     1147963     27.06%     49.84% |     2127950     50.16%    100.00% |          25      0.00%    100.00%
system.ruby.L1Cache_Controller.MM.L2_Replacement::total      4242637                      
system.ruby.L1Cache_Controller.MM.L1_to_L2 |     1187750     23.73%     23.73% |     1408843     28.15%     51.88% |     2391645     47.78%     99.66% |       17064      0.34%    100.00%
system.ruby.L1Cache_Controller.MM.L1_to_L2::total      5005302                      
system.ruby.L1Cache_Controller.MM.Trigger_L2_to_L1D |      204514     29.04%     29.04% |      245234     34.82%     63.85% |      248324     35.26%     99.11% |        6258      0.89%    100.00%
system.ruby.L1Cache_Controller.MM.Trigger_L2_to_L1D::total       704330                      
system.ruby.L1Cache_Controller.MM.Other_GETX |       11527     38.61%     38.61% |       11612     38.89%     77.50% |        3405     11.40%     88.90% |        3313     11.10%    100.00%
system.ruby.L1Cache_Controller.MM.Other_GETX::total        29857                      
system.ruby.L1Cache_Controller.MM.Other_GETS |       15015     44.50%     44.50% |        6168     18.28%     62.78% |        6203     18.38%     81.16% |        6356     18.84%    100.00%
system.ruby.L1Cache_Controller.MM.Other_GETS::total        33742                      
system.ruby.L1Cache_Controller.MM.Merged_GETS |          47     58.02%     58.02% |           8      9.88%     67.90% |           9     11.11%     79.01% |          17     20.99%    100.00%
system.ruby.L1Cache_Controller.MM.Merged_GETS::total           81                      
system.ruby.L1Cache_Controller.SR.Load   |       74997      5.26%      5.26% |     1022813     71.72%     76.98% |      325838     22.85%     99.83% |        2494      0.17%    100.00%
system.ruby.L1Cache_Controller.SR.Load::total      1426142                      
system.ruby.L1Cache_Controller.SR.Ifetch |       30395     28.81%     28.81% |       19282     18.28%     47.09% |       38381     36.38%     83.47% |       17438     16.53%    100.00%
system.ruby.L1Cache_Controller.SR.Ifetch::total       105496                      
system.ruby.L1Cache_Controller.SR.Store  |          72     27.48%     27.48% |          16      6.11%     33.59% |         159     60.69%     94.27% |          15      5.73%    100.00%
system.ruby.L1Cache_Controller.SR.Store::total          262                      
system.ruby.L1Cache_Controller.OR.Load   |        6188     14.63%     14.63% |        3144      7.43%     22.07% |       31685     74.92%     96.99% |        1273      3.01%    100.00%
system.ruby.L1Cache_Controller.OR.Load::total        42290                      
system.ruby.L1Cache_Controller.OR.Ifetch |        7171     27.55%     27.55% |        5453     20.95%     48.50% |        4971     19.10%     67.59% |        8436     32.41%    100.00%
system.ruby.L1Cache_Controller.OR.Ifetch::total        26031                      
system.ruby.L1Cache_Controller.OR.Store  |           7      8.05%      8.05% |           3      3.45%     11.49% |          68     78.16%     89.66% |           9     10.34%    100.00%
system.ruby.L1Cache_Controller.OR.Store::total           87                      
system.ruby.L1Cache_Controller.MR.Load   |     1172202     44.52%     44.52% |      407670     15.48%     60.00% |     1052141     39.96%     99.96% |        1121      0.04%    100.00%
system.ruby.L1Cache_Controller.MR.Load::total      2633134                      
system.ruby.L1Cache_Controller.MR.Ifetch |        3779     43.51%     43.51% |        2435     28.04%     71.55% |        1095     12.61%     84.16% |        1376     15.84%    100.00%
system.ruby.L1Cache_Controller.MR.Ifetch::total         8685                      
system.ruby.L1Cache_Controller.MR.Store  |        6087     27.71%     27.71% |        7682     34.98%     62.69% |        7988     36.37%     99.06% |         207      0.94%    100.00%
system.ruby.L1Cache_Controller.MR.Store::total        21964                      
system.ruby.L1Cache_Controller.MMR.Load  |       99463     28.84%     28.84% |       96815     28.07%     56.91% |      144350     41.85%     98.76% |        4274      1.24%    100.00%
system.ruby.L1Cache_Controller.MMR.Load::total       344902                      
system.ruby.L1Cache_Controller.MMR.Store |      105051     29.23%     29.23% |      148419     41.29%     70.52% |      103974     28.93%     99.45% |        1984      0.55%    100.00%
system.ruby.L1Cache_Controller.MMR.Store::total       359428                      
system.ruby.L1Cache_Controller.IM.Ack    |     2820068     28.60%     28.60% |     3364181     34.12%     62.72% |     3649369     37.01%     99.74% |       26111      0.26%    100.00%
system.ruby.L1Cache_Controller.IM.Ack::total      9859729                      
system.ruby.L1Cache_Controller.IM.Data   |        1077     26.17%     26.17% |         431     10.47%     36.65% |        2237     54.36%     91.01% |         370      8.99%    100.00%
system.ruby.L1Cache_Controller.IM.Data::total         4115                      
system.ruby.L1Cache_Controller.IM.Exclusive_Data |      942686     28.50%     28.50% |     1128230     34.11%     62.61% |     1227003     37.09%     99.70% |        9858      0.30%    100.00%
system.ruby.L1Cache_Controller.IM.Exclusive_Data::total      3307777                      
system.ruby.L1Cache_Controller.SM.Ack    |        2255     19.20%     19.20% |        1007      8.57%     27.77% |        7613     64.81%     92.58% |         872      7.42%    100.00%
system.ruby.L1Cache_Controller.SM.Ack::total        11747                      
system.ruby.L1Cache_Controller.SM.Data   |        2452     22.16%     22.16% |         862      7.79%     29.95% |        6681     60.38%     90.33% |        1070      9.67%    100.00%
system.ruby.L1Cache_Controller.SM.Data::total        11065                      
system.ruby.L1Cache_Controller.OM.Ack    |        2826     75.12%     75.12% |          87      2.31%     77.43% |         543     14.43%     91.87% |         306      8.13%    100.00%
system.ruby.L1Cache_Controller.OM.Ack::total         3762                      
system.ruby.L1Cache_Controller.OM.All_acks_no_sharers |         942     75.12%     75.12% |          29      2.31%     77.43% |         181     14.43%     91.87% |         102      8.13%    100.00%
system.ruby.L1Cache_Controller.OM.All_acks_no_sharers::total         1254                      
system.ruby.L1Cache_Controller.ISM.Ack   |        4228     27.01%     27.01% |        1180      7.54%     34.55% |        8435     53.89%     88.44% |        1810     11.56%    100.00%
system.ruby.L1Cache_Controller.ISM.Ack::total        15653                      
system.ruby.L1Cache_Controller.ISM.All_acks_no_sharers |        3529     23.25%     23.25% |        1293      8.52%     31.77% |        8918     58.75%     90.51% |        1440      9.49%    100.00%
system.ruby.L1Cache_Controller.ISM.All_acks_no_sharers::total        15180                      
system.ruby.L1Cache_Controller.M_W.Load  |          56      4.42%      4.42% |         704     55.56%     59.98% |         439     34.65%     94.63% |          68      5.37%    100.00%
system.ruby.L1Cache_Controller.M_W.Load::total         1267                      
system.ruby.L1Cache_Controller.M_W.Store |          25     29.76%     29.76% |           3      3.57%     33.33% |          17     20.24%     53.57% |          39     46.43%    100.00%
system.ruby.L1Cache_Controller.M_W.Store::total           84                      
system.ruby.L1Cache_Controller.M_W.Ack   |        5697     16.35%     16.35% |        7356     21.11%     37.46% |       18782     53.90%     91.35% |        3014      8.65%    100.00%
system.ruby.L1Cache_Controller.M_W.Ack::total        34849                      
system.ruby.L1Cache_Controller.M_W.All_acks_no_sharers |     1054944     23.84%     23.84% |      929419     21.00%     44.84% |     2431909     54.95%     99.79% |        9077      0.21%    100.00%
system.ruby.L1Cache_Controller.M_W.All_acks_no_sharers::total      4425349                      
system.ruby.L1Cache_Controller.MM_W.Load |           0      0.00%      0.00% |           0      0.00%      0.00% |           1    100.00%    100.00% |           0      0.00%    100.00%
system.ruby.L1Cache_Controller.MM_W.Load::total            1                      
system.ruby.L1Cache_Controller.MM_W.Store |        1145      6.24%      6.24% |        6300     34.35%     40.59% |       10490     57.19%     97.79% |         406      2.21%    100.00%
system.ruby.L1Cache_Controller.MM_W.Store::total        18341                      
system.ruby.L1Cache_Controller.MM_W.Ack  |        4010     11.84%     11.84% |       11632     34.35%     46.19% |       16687     49.28%     95.47% |        1534      4.53%    100.00%
system.ruby.L1Cache_Controller.MM_W.Ack::total        33863                      
system.ruby.L1Cache_Controller.MM_W.All_acks_no_sharers |      942711     28.50%     28.50% |     1128233     34.11%     62.61% |     1227020     37.09%     99.70% |        9897      0.30%    100.00%
system.ruby.L1Cache_Controller.MM_W.All_acks_no_sharers::total      3307861                      
system.ruby.L1Cache_Controller.IS.Other_GETS |           0      0.00%      0.00% |           0      0.00%      0.00% |           0      0.00%      0.00% |           1    100.00%    100.00%
system.ruby.L1Cache_Controller.IS.Other_GETS::total            1                      
system.ruby.L1Cache_Controller.IS.Ack    |     3164889     22.73%     22.73% |     3008796     21.60%     44.33% |     7725366     55.47%     99.80% |       27561      0.20%    100.00%
system.ruby.L1Cache_Controller.IS.Ack::total     13926612                      
system.ruby.L1Cache_Controller.IS.Shared_Ack |       13624     14.80%     14.80% |       10796     11.73%     26.53% |       64820     70.41%     96.94% |        2815      3.06%    100.00%
system.ruby.L1Cache_Controller.IS.Shared_Ack::total        92055                      
system.ruby.L1Cache_Controller.IS.Data   |        5045      5.62%      5.62% |        3054      3.40%      9.03% |       80361     89.56%     98.58% |        1272      1.42%    100.00%
system.ruby.L1Cache_Controller.IS.Data::total        89732                      
system.ruby.L1Cache_Controller.IS.Shared_Data |       10932      1.59%      1.59% |      326962     47.70%     49.29% |      340719     49.71%     99.00% |        6860      1.00%    100.00%
system.ruby.L1Cache_Controller.IS.Shared_Data::total       685473                      
system.ruby.L1Cache_Controller.IS.Exclusive_Data |     1054969     23.84%     23.84% |      929422     21.00%     44.84% |     2431926     54.95%     99.79% |        9116      0.21%    100.00%
system.ruby.L1Cache_Controller.IS.Exclusive_Data::total      4425433                      
system.ruby.L1Cache_Controller.SS.Load   |         220      0.13%      0.13% |      162913     99.59%     99.72% |         209      0.13%     99.85% |         246      0.15%    100.00%
system.ruby.L1Cache_Controller.SS.Load::total       163588                      
system.ruby.L1Cache_Controller.SS.Ifetch |        2358     25.49%     25.49% |        1863     20.14%     45.63% |        3657     39.54%     85.17% |        1372     14.83%    100.00%
system.ruby.L1Cache_Controller.SS.Ifetch::total         9250                      
system.ruby.L1Cache_Controller.SS.Store  |           4     50.00%     50.00% |           1     12.50%     62.50% |           3     37.50%    100.00% |           0      0.00%    100.00%
system.ruby.L1Cache_Controller.SS.Store::total            8                      
system.ruby.L1Cache_Controller.SS.Ack    |        6029      0.80%      0.80% |      415237     55.14%     55.94% |      327456     43.48%     99.43% |        4320      0.57%    100.00%
system.ruby.L1Cache_Controller.SS.Ack::total       753042                      
system.ruby.L1Cache_Controller.SS.Shared_Ack |        4641      6.10%      6.10% |        2447      3.22%      9.32% |       66606     87.54%     96.85% |        2393      3.15%    100.00%
system.ruby.L1Cache_Controller.SS.Shared_Ack::total        76087                      
system.ruby.L1Cache_Controller.SS.All_acks |       15791      2.15%      2.15% |      329735     44.91%     47.06% |      380570     51.84%     98.90% |        8083      1.10%    100.00%
system.ruby.L1Cache_Controller.SS.All_acks::total       734179                      
system.ruby.L1Cache_Controller.SS.All_acks_no_sharers |         186      0.45%      0.45% |         281      0.68%      1.14% |       40510     98.74%     99.88% |          49      0.12%    100.00%
system.ruby.L1Cache_Controller.SS.All_acks_no_sharers::total        41026                      
system.ruby.L1Cache_Controller.OI.Load   |          11     50.00%     50.00% |           3     13.64%     63.64% |           8     36.36%    100.00% |           0      0.00%    100.00%
system.ruby.L1Cache_Controller.OI.Load::total           22                      
system.ruby.L1Cache_Controller.OI.Ifetch |           2     28.57%     28.57% |           1     14.29%     42.86% |           4     57.14%    100.00% |           0      0.00%    100.00%
system.ruby.L1Cache_Controller.OI.Ifetch::total            7                      
system.ruby.L1Cache_Controller.OI.Store  |           0      0.00%      0.00% |           0      0.00%      0.00% |           1    100.00%    100.00% |           0      0.00%    100.00%
system.ruby.L1Cache_Controller.OI.Store::total            1                      
system.ruby.L1Cache_Controller.OI.Writeback_Ack |        5624     63.76%     63.76% |        1209     13.71%     77.46% |        1980     22.45%     99.91% |           8      0.09%    100.00%
system.ruby.L1Cache_Controller.OI.Writeback_Ack::total         8821                      
system.ruby.L1Cache_Controller.MI.Load   |       16083     37.84%     37.84% |        7211     16.97%     54.81% |       19206     45.19%    100.00% |           1      0.00%    100.00%
system.ruby.L1Cache_Controller.MI.Load::total        42501                      
system.ruby.L1Cache_Controller.MI.Ifetch |           4     57.14%     57.14% |           1     14.29%     71.43% |           2     28.57%    100.00% |           0      0.00%    100.00%
system.ruby.L1Cache_Controller.MI.Ifetch::total            7                      
system.ruby.L1Cache_Controller.MI.Store  |        1534     28.37%     28.37% |        1891     34.97%     63.34% |        1982     36.66%    100.00% |           0      0.00%    100.00%
system.ruby.L1Cache_Controller.MI.Store::total         5407                      
system.ruby.L1Cache_Controller.MI.Other_GETS |           0      0.00%      0.00% |           0      0.00%      0.00% |           1    100.00%    100.00% |           0      0.00%    100.00%
system.ruby.L1Cache_Controller.MI.Other_GETS::total            1                      
system.ruby.L1Cache_Controller.MI.Writeback_Ack |     1967489     25.77%     25.77% |     2025342     26.52%     52.29% |     3642791     47.71%    100.00% |          46      0.00%    100.00%
system.ruby.L1Cache_Controller.MI.Writeback_Ack::total      7635668                      
system.ruby.L1Cache_Controller.ST.Complete_L2_to_L1 |      105464      6.88%      6.88% |     1042111     68.03%     74.91% |      364378     23.79%     98.70% |       19947      1.30%    100.00%
system.ruby.L1Cache_Controller.ST.Complete_L2_to_L1::total      1531900                      
system.ruby.L1Cache_Controller.OT.Complete_L2_to_L1 |       13366     19.54%     19.54% |        8600     12.57%     32.11% |       36724     53.68%     85.79% |        9718     14.21%    100.00%
system.ruby.L1Cache_Controller.OT.Complete_L2_to_L1::total        68408                      
system.ruby.L1Cache_Controller.MT.Complete_L2_to_L1 |     1182068     44.38%     44.38% |      417787     15.68%     60.06% |     1061224     39.84%     99.90% |        2704      0.10%    100.00%
system.ruby.L1Cache_Controller.MT.Complete_L2_to_L1::total      2663783                      
system.ruby.L1Cache_Controller.MMT.Complete_L2_to_L1 |      204514     29.04%     29.04% |      245234     34.82%     63.85% |      248324     35.26%     99.11% |        6258      0.89%    100.00%
system.ruby.L1Cache_Controller.MMT.Complete_L2_to_L1::total       704330                      

---------- End Simulation Statistics   ----------
