
---------- Begin Simulation Statistics ----------
sim_seconds                                  2.359178                       # Number of seconds simulated
sim_ticks                                2359177614500                       # Number of ticks simulated
final_tick                               54791740259501                       # Number of ticks from beginning of simulation (restored from checkpoints and never reset)
sim_freq                                 1000000000000                       # Frequency of simulated ticks
host_inst_rate                                 150297                       # Simulator instruction rate (inst/s)
host_op_rate                                   272439                       # Simulator op (including micro ops) rate (op/s)
host_tick_rate                              270056868                       # Simulator tick rate (ticks/s)
host_mem_usage                                1846296                       # Number of bytes of host memory used
host_seconds                                  8735.86                       # Real time elapsed on the host
sim_insts                                  1312968984                       # Number of instructions simulated
sim_ops                                    2379990290                       # Number of ops (including micro ops) simulated
system.voltage_domain.voltage                       1                       # Voltage in Volts
system.clk_domain.clock                          1000                       # Clock period in ticks
system.mem_ctrls.bytes_read::ruby.dir_cntrl0     83415936                       # Number of bytes read from this memory
system.mem_ctrls.bytes_read::total           83415936                       # Number of bytes read from this memory
system.mem_ctrls.bytes_written::ruby.dir_cntrl0     47370304                       # Number of bytes written to this memory
system.mem_ctrls.bytes_written::total        47370304                       # Number of bytes written to this memory
system.mem_ctrls.num_reads::ruby.dir_cntrl0      1303374                       # Number of read requests responded to by this memory
system.mem_ctrls.num_reads::total             1303374                       # Number of read requests responded to by this memory
system.mem_ctrls.num_writes::ruby.dir_cntrl0       740161                       # Number of write requests responded to by this memory
system.mem_ctrls.num_writes::total             740161                       # Number of write requests responded to by this memory
system.mem_ctrls.bw_read::ruby.dir_cntrl0     35358057                       # Total read bandwidth from this memory (bytes/s)
system.mem_ctrls.bw_read::total              35358057                       # Total read bandwidth from this memory (bytes/s)
system.mem_ctrls.bw_write::ruby.dir_cntrl0     20079160                       # Write bandwidth from this memory (bytes/s)
system.mem_ctrls.bw_write::total             20079160                       # Write bandwidth from this memory (bytes/s)
system.mem_ctrls.bw_total::ruby.dir_cntrl0     55437216                       # Total bandwidth to/from this memory (bytes/s)
system.mem_ctrls.bw_total::total             55437216                       # Total bandwidth to/from this memory (bytes/s)
system.mem_ctrls.readReqs                     1303374                       # Number of read requests accepted
system.mem_ctrls.writeReqs                     740161                       # Number of write requests accepted
system.mem_ctrls.readBursts                   1303374                       # Number of DRAM read bursts, including those serviced by the write queue
system.mem_ctrls.writeBursts                   740161                       # Number of DRAM write bursts, including those merged in the write queue
system.mem_ctrls.bytesReadDRAM               83375808                       # Total number of bytes read from DRAM
system.mem_ctrls.bytesReadWrQ                   40128                       # Total number of bytes read from write queue
system.mem_ctrls.bytesWritten                47368256                       # Total number of bytes written to DRAM
system.mem_ctrls.bytesReadSys                83415936                       # Total read bytes from the system interface side
system.mem_ctrls.bytesWrittenSys             47370304                       # Total written bytes from the system interface side
system.mem_ctrls.servicedByWrQ                    627                       # Number of DRAM read bursts serviced by the write queue
system.mem_ctrls.mergedWrBursts                    27                       # Number of DRAM write bursts merged with an existing one
system.mem_ctrls.neitherReadNorWriteReqs            0                       # Number of requests that are neither read nor write
system.mem_ctrls.perBankRdBursts::0             87192                       # Per bank write bursts
system.mem_ctrls.perBankRdBursts::1             87942                       # Per bank write bursts
system.mem_ctrls.perBankRdBursts::2             79923                       # Per bank write bursts
system.mem_ctrls.perBankRdBursts::3             80351                       # Per bank write bursts
system.mem_ctrls.perBankRdBursts::4             81048                       # Per bank write bursts
system.mem_ctrls.perBankRdBursts::5             80301                       # Per bank write bursts
system.mem_ctrls.perBankRdBursts::6             81040                       # Per bank write bursts
system.mem_ctrls.perBankRdBursts::7             78518                       # Per bank write bursts
system.mem_ctrls.perBankRdBursts::8             81391                       # Per bank write bursts
system.mem_ctrls.perBankRdBursts::9             79078                       # Per bank write bursts
system.mem_ctrls.perBankRdBursts::10            80384                       # Per bank write bursts
system.mem_ctrls.perBankRdBursts::11            80852                       # Per bank write bursts
system.mem_ctrls.perBankRdBursts::12            78624                       # Per bank write bursts
system.mem_ctrls.perBankRdBursts::13            80345                       # Per bank write bursts
system.mem_ctrls.perBankRdBursts::14            81692                       # Per bank write bursts
system.mem_ctrls.perBankRdBursts::15            84066                       # Per bank write bursts
system.mem_ctrls.perBankWrBursts::0             48332                       # Per bank write bursts
system.mem_ctrls.perBankWrBursts::1             50389                       # Per bank write bursts
system.mem_ctrls.perBankWrBursts::2             46476                       # Per bank write bursts
system.mem_ctrls.perBankWrBursts::3             45775                       # Per bank write bursts
system.mem_ctrls.perBankWrBursts::4             45721                       # Per bank write bursts
system.mem_ctrls.perBankWrBursts::5             45635                       # Per bank write bursts
system.mem_ctrls.perBankWrBursts::6             46498                       # Per bank write bursts
system.mem_ctrls.perBankWrBursts::7             45306                       # Per bank write bursts
system.mem_ctrls.perBankWrBursts::8             46466                       # Per bank write bursts
system.mem_ctrls.perBankWrBursts::9             44779                       # Per bank write bursts
system.mem_ctrls.perBankWrBursts::10            46318                       # Per bank write bursts
system.mem_ctrls.perBankWrBursts::11            45931                       # Per bank write bursts
system.mem_ctrls.perBankWrBursts::12            45113                       # Per bank write bursts
system.mem_ctrls.perBankWrBursts::13            45277                       # Per bank write bursts
system.mem_ctrls.perBankWrBursts::14            45875                       # Per bank write bursts
system.mem_ctrls.perBankWrBursts::15            46238                       # Per bank write bursts
system.mem_ctrls.numRdRetry                         0                       # Number of times read queue was full causing retry
system.mem_ctrls.numWrRetry                         0                       # Number of times write queue was full causing retry
system.mem_ctrls.totGap                  2359177543500                       # Total gap between requests
system.mem_ctrls.readPktSize::0                     0                       # Read request sizes (log2)
system.mem_ctrls.readPktSize::1                     0                       # Read request sizes (log2)
system.mem_ctrls.readPktSize::2                     0                       # Read request sizes (log2)
system.mem_ctrls.readPktSize::3                     0                       # Read request sizes (log2)
system.mem_ctrls.readPktSize::4                     0                       # Read request sizes (log2)
system.mem_ctrls.readPktSize::5                     0                       # Read request sizes (log2)
system.mem_ctrls.readPktSize::6               1303374                       # Read request sizes (log2)
system.mem_ctrls.writePktSize::0                    0                       # Write request sizes (log2)
system.mem_ctrls.writePktSize::1                    0                       # Write request sizes (log2)
system.mem_ctrls.writePktSize::2                    0                       # Write request sizes (log2)
system.mem_ctrls.writePktSize::3                    0                       # Write request sizes (log2)
system.mem_ctrls.writePktSize::4                    0                       # Write request sizes (log2)
system.mem_ctrls.writePktSize::5                    0                       # Write request sizes (log2)
system.mem_ctrls.writePktSize::6               740161                       # Write request sizes (log2)
system.mem_ctrls.rdQLenPdf::0                 1297762                       # What read queue length does an incoming req see
system.mem_ctrls.rdQLenPdf::1                    4961                       # What read queue length does an incoming req see
system.mem_ctrls.rdQLenPdf::2                      24                       # What read queue length does an incoming req see
system.mem_ctrls.rdQLenPdf::3                       0                       # What read queue length does an incoming req see
system.mem_ctrls.rdQLenPdf::4                       0                       # What read queue length does an incoming req see
system.mem_ctrls.rdQLenPdf::5                       0                       # What read queue length does an incoming req see
system.mem_ctrls.rdQLenPdf::6                       0                       # What read queue length does an incoming req see
system.mem_ctrls.rdQLenPdf::7                       0                       # What read queue length does an incoming req see
system.mem_ctrls.rdQLenPdf::8                       0                       # What read queue length does an incoming req see
system.mem_ctrls.rdQLenPdf::9                       0                       # What read queue length does an incoming req see
system.mem_ctrls.rdQLenPdf::10                      0                       # What read queue length does an incoming req see
system.mem_ctrls.rdQLenPdf::11                      0                       # What read queue length does an incoming req see
system.mem_ctrls.rdQLenPdf::12                      0                       # What read queue length does an incoming req see
system.mem_ctrls.rdQLenPdf::13                      0                       # What read queue length does an incoming req see
system.mem_ctrls.rdQLenPdf::14                      0                       # What read queue length does an incoming req see
system.mem_ctrls.rdQLenPdf::15                      0                       # What read queue length does an incoming req see
system.mem_ctrls.rdQLenPdf::16                      0                       # What read queue length does an incoming req see
system.mem_ctrls.rdQLenPdf::17                      0                       # What read queue length does an incoming req see
system.mem_ctrls.rdQLenPdf::18                      0                       # What read queue length does an incoming req see
system.mem_ctrls.rdQLenPdf::19                      0                       # What read queue length does an incoming req see
system.mem_ctrls.rdQLenPdf::20                      0                       # What read queue length does an incoming req see
system.mem_ctrls.rdQLenPdf::21                      0                       # What read queue length does an incoming req see
system.mem_ctrls.rdQLenPdf::22                      0                       # What read queue length does an incoming req see
system.mem_ctrls.rdQLenPdf::23                      0                       # What read queue length does an incoming req see
system.mem_ctrls.rdQLenPdf::24                      0                       # What read queue length does an incoming req see
system.mem_ctrls.rdQLenPdf::25                      0                       # What read queue length does an incoming req see
system.mem_ctrls.rdQLenPdf::26                      0                       # What read queue length does an incoming req see
system.mem_ctrls.rdQLenPdf::27                      0                       # What read queue length does an incoming req see
system.mem_ctrls.rdQLenPdf::28                      0                       # What read queue length does an incoming req see
system.mem_ctrls.rdQLenPdf::29                      0                       # What read queue length does an incoming req see
system.mem_ctrls.rdQLenPdf::30                      0                       # What read queue length does an incoming req see
system.mem_ctrls.rdQLenPdf::31                      0                       # What read queue length does an incoming req see
system.mem_ctrls.wrQLenPdf::0                       0                       # What write queue length does an incoming req see
system.mem_ctrls.wrQLenPdf::1                       0                       # What write queue length does an incoming req see
system.mem_ctrls.wrQLenPdf::2                       0                       # What write queue length does an incoming req see
system.mem_ctrls.wrQLenPdf::3                       0                       # What write queue length does an incoming req see
system.mem_ctrls.wrQLenPdf::4                       0                       # What write queue length does an incoming req see
system.mem_ctrls.wrQLenPdf::5                       0                       # What write queue length does an incoming req see
system.mem_ctrls.wrQLenPdf::6                       0                       # What write queue length does an incoming req see
system.mem_ctrls.wrQLenPdf::7                       0                       # What write queue length does an incoming req see
system.mem_ctrls.wrQLenPdf::8                       0                       # What write queue length does an incoming req see
system.mem_ctrls.wrQLenPdf::9                       0                       # What write queue length does an incoming req see
system.mem_ctrls.wrQLenPdf::10                      0                       # What write queue length does an incoming req see
system.mem_ctrls.wrQLenPdf::11                      0                       # What write queue length does an incoming req see
system.mem_ctrls.wrQLenPdf::12                      0                       # What write queue length does an incoming req see
system.mem_ctrls.wrQLenPdf::13                      0                       # What write queue length does an incoming req see
system.mem_ctrls.wrQLenPdf::14                      0                       # What write queue length does an incoming req see
system.mem_ctrls.wrQLenPdf::15                    737                       # What write queue length does an incoming req see
system.mem_ctrls.wrQLenPdf::16                    814                       # What write queue length does an incoming req see
system.mem_ctrls.wrQLenPdf::17                  45632                       # What write queue length does an incoming req see
system.mem_ctrls.wrQLenPdf::18                  46203                       # What write queue length does an incoming req see
system.mem_ctrls.wrQLenPdf::19                  46203                       # What write queue length does an incoming req see
system.mem_ctrls.wrQLenPdf::20                  46211                       # What write queue length does an incoming req see
system.mem_ctrls.wrQLenPdf::21                  46221                       # What write queue length does an incoming req see
system.mem_ctrls.wrQLenPdf::22                  46197                       # What write queue length does an incoming req see
system.mem_ctrls.wrQLenPdf::23                  46211                       # What write queue length does an incoming req see
system.mem_ctrls.wrQLenPdf::24                  46224                       # What write queue length does an incoming req see
system.mem_ctrls.wrQLenPdf::25                  46222                       # What write queue length does an incoming req see
system.mem_ctrls.wrQLenPdf::26                  46206                       # What write queue length does an incoming req see
system.mem_ctrls.wrQLenPdf::27                  46193                       # What write queue length does an incoming req see
system.mem_ctrls.wrQLenPdf::28                  46183                       # What write queue length does an incoming req see
system.mem_ctrls.wrQLenPdf::29                  46183                       # What write queue length does an incoming req see
system.mem_ctrls.wrQLenPdf::30                  46169                       # What write queue length does an incoming req see
system.mem_ctrls.wrQLenPdf::31                  46166                       # What write queue length does an incoming req see
system.mem_ctrls.wrQLenPdf::32                  46158                       # What write queue length does an incoming req see
system.mem_ctrls.wrQLenPdf::33                      1                       # What write queue length does an incoming req see
system.mem_ctrls.wrQLenPdf::34                      0                       # What write queue length does an incoming req see
system.mem_ctrls.wrQLenPdf::35                      0                       # What write queue length does an incoming req see
system.mem_ctrls.wrQLenPdf::36                      0                       # What write queue length does an incoming req see
system.mem_ctrls.wrQLenPdf::37                      0                       # What write queue length does an incoming req see
system.mem_ctrls.wrQLenPdf::38                      0                       # What write queue length does an incoming req see
system.mem_ctrls.wrQLenPdf::39                      0                       # What write queue length does an incoming req see
system.mem_ctrls.wrQLenPdf::40                      0                       # What write queue length does an incoming req see
system.mem_ctrls.wrQLenPdf::41                      0                       # What write queue length does an incoming req see
system.mem_ctrls.wrQLenPdf::42                      0                       # What write queue length does an incoming req see
system.mem_ctrls.wrQLenPdf::43                      0                       # What write queue length does an incoming req see
system.mem_ctrls.wrQLenPdf::44                      0                       # What write queue length does an incoming req see
system.mem_ctrls.wrQLenPdf::45                      0                       # What write queue length does an incoming req see
system.mem_ctrls.wrQLenPdf::46                      0                       # What write queue length does an incoming req see
system.mem_ctrls.wrQLenPdf::47                      0                       # What write queue length does an incoming req see
system.mem_ctrls.wrQLenPdf::48                      0                       # What write queue length does an incoming req see
system.mem_ctrls.wrQLenPdf::49                      0                       # What write queue length does an incoming req see
system.mem_ctrls.wrQLenPdf::50                      0                       # What write queue length does an incoming req see
system.mem_ctrls.wrQLenPdf::51                      0                       # What write queue length does an incoming req see
system.mem_ctrls.wrQLenPdf::52                      0                       # What write queue length does an incoming req see
system.mem_ctrls.wrQLenPdf::53                      0                       # What write queue length does an incoming req see
system.mem_ctrls.wrQLenPdf::54                      0                       # What write queue length does an incoming req see
system.mem_ctrls.wrQLenPdf::55                      0                       # What write queue length does an incoming req see
system.mem_ctrls.wrQLenPdf::56                      0                       # What write queue length does an incoming req see
system.mem_ctrls.wrQLenPdf::57                      0                       # What write queue length does an incoming req see
system.mem_ctrls.wrQLenPdf::58                      0                       # What write queue length does an incoming req see
system.mem_ctrls.wrQLenPdf::59                      0                       # What write queue length does an incoming req see
system.mem_ctrls.wrQLenPdf::60                      0                       # What write queue length does an incoming req see
system.mem_ctrls.wrQLenPdf::61                      0                       # What write queue length does an incoming req see
system.mem_ctrls.wrQLenPdf::62                      0                       # What write queue length does an incoming req see
system.mem_ctrls.wrQLenPdf::63                      0                       # What write queue length does an incoming req see
system.mem_ctrls.bytesPerActivate::samples       752274                       # Bytes accessed per row activation
system.mem_ctrls.bytesPerActivate::mean    173.798547                       # Bytes accessed per row activation
system.mem_ctrls.bytesPerActivate::gmean   122.505448                       # Bytes accessed per row activation
system.mem_ctrls.bytesPerActivate::stdev   192.897865                       # Bytes accessed per row activation
system.mem_ctrls.bytesPerActivate::0-127       361073     48.00%     48.00% # Bytes accessed per row activation
system.mem_ctrls.bytesPerActivate::128-255       222680     29.60%     77.60% # Bytes accessed per row activation
system.mem_ctrls.bytesPerActivate::256-383       107163     14.25%     91.84% # Bytes accessed per row activation
system.mem_ctrls.bytesPerActivate::384-511        16569      2.20%     94.05% # Bytes accessed per row activation
system.mem_ctrls.bytesPerActivate::512-639         9535      1.27%     95.31% # Bytes accessed per row activation
system.mem_ctrls.bytesPerActivate::640-767         6538      0.87%     96.18% # Bytes accessed per row activation
system.mem_ctrls.bytesPerActivate::768-895         5619      0.75%     96.93% # Bytes accessed per row activation
system.mem_ctrls.bytesPerActivate::896-1023         4623      0.61%     97.54% # Bytes accessed per row activation
system.mem_ctrls.bytesPerActivate::1024-1151        18474      2.46%    100.00% # Bytes accessed per row activation
system.mem_ctrls.bytesPerActivate::total       752274                       # Bytes accessed per row activation
system.mem_ctrls.rdPerTurnAround::samples        46157                       # Reads before turning the bus around for writes
system.mem_ctrls.rdPerTurnAround::mean      28.224105                       # Reads before turning the bus around for writes
system.mem_ctrls.rdPerTurnAround::stdev     39.389116                       # Reads before turning the bus around for writes
system.mem_ctrls.rdPerTurnAround::0-127         45681     98.97%     98.97% # Reads before turning the bus around for writes
system.mem_ctrls.rdPerTurnAround::128-255          368      0.80%     99.77% # Reads before turning the bus around for writes
system.mem_ctrls.rdPerTurnAround::256-383           75      0.16%     99.93% # Reads before turning the bus around for writes
system.mem_ctrls.rdPerTurnAround::384-511           20      0.04%     99.97% # Reads before turning the bus around for writes
system.mem_ctrls.rdPerTurnAround::512-639            3      0.01%     99.98% # Reads before turning the bus around for writes
system.mem_ctrls.rdPerTurnAround::768-895            1      0.00%     99.98% # Reads before turning the bus around for writes
system.mem_ctrls.rdPerTurnAround::1408-1535            1      0.00%     99.98% # Reads before turning the bus around for writes
system.mem_ctrls.rdPerTurnAround::1536-1663            2      0.00%     99.99% # Reads before turning the bus around for writes
system.mem_ctrls.rdPerTurnAround::2048-2175            2      0.00%     99.99% # Reads before turning the bus around for writes
system.mem_ctrls.rdPerTurnAround::2432-2559            1      0.00%     99.99% # Reads before turning the bus around for writes
system.mem_ctrls.rdPerTurnAround::2560-2687            2      0.00%    100.00% # Reads before turning the bus around for writes
system.mem_ctrls.rdPerTurnAround::2816-2943            1      0.00%    100.00% # Reads before turning the bus around for writes
system.mem_ctrls.rdPerTurnAround::total         46157                       # Reads before turning the bus around for writes
system.mem_ctrls.wrPerTurnAround::samples        46157                       # Writes before turning the bus around for reads
system.mem_ctrls.wrPerTurnAround::mean      16.035033                       # Writes before turning the bus around for reads
system.mem_ctrls.wrPerTurnAround::gmean     16.032947                       # Writes before turning the bus around for reads
system.mem_ctrls.wrPerTurnAround::stdev      0.270864                       # Writes before turning the bus around for reads
system.mem_ctrls.wrPerTurnAround::16            45341     98.23%     98.23% # Writes before turning the bus around for reads
system.mem_ctrls.wrPerTurnAround::17               55      0.12%     98.35% # Writes before turning the bus around for reads
system.mem_ctrls.wrPerTurnAround::18              750      1.62%     99.98% # Writes before turning the bus around for reads
system.mem_ctrls.wrPerTurnAround::19                3      0.01%     99.98% # Writes before turning the bus around for reads
system.mem_ctrls.wrPerTurnAround::21                2      0.00%     99.99% # Writes before turning the bus around for reads
system.mem_ctrls.wrPerTurnAround::22                1      0.00%     99.99% # Writes before turning the bus around for reads
system.mem_ctrls.wrPerTurnAround::23                3      0.01%    100.00% # Writes before turning the bus around for reads
system.mem_ctrls.wrPerTurnAround::24                2      0.00%    100.00% # Writes before turning the bus around for reads
system.mem_ctrls.wrPerTurnAround::total         46157                       # Writes before turning the bus around for reads
system.mem_ctrls.totQLat                  17415968393                       # Total ticks spent queuing
system.mem_ctrls.totMemAccLat             41842474643                       # Total ticks spent from burst creation until serviced by the DRAM
system.mem_ctrls.totBusLat                 6513735000                       # Total ticks spent in databus transfers
system.mem_ctrls.avgQLat                     13368.65                       # Average queueing delay per DRAM burst
system.mem_ctrls.avgBusLat                    5000.00                       # Average bus latency per DRAM burst
system.mem_ctrls.avgMemAccLat                32118.65                       # Average memory access latency per DRAM burst
system.mem_ctrls.avgRdBW                        35.34                       # Average DRAM read bandwidth in MiByte/s
system.mem_ctrls.avgWrBW                        20.08                       # Average achieved write bandwidth in MiByte/s
system.mem_ctrls.avgRdBWSys                     35.36                       # Average system read bandwidth in MiByte/s
system.mem_ctrls.avgWrBWSys                     20.08                       # Average system write bandwidth in MiByte/s
system.mem_ctrls.peakBW                      12800.00                       # Theoretical peak bandwidth in MiByte/s
system.mem_ctrls.busUtil                         0.43                       # Data bus utilization in percentage
system.mem_ctrls.busUtilRead                     0.28                       # Data bus utilization in percentage for reads
system.mem_ctrls.busUtilWrite                    0.16                       # Data bus utilization in percentage for writes
system.mem_ctrls.avgRdQLen                       1.00                       # Average read queue length when enqueuing
system.mem_ctrls.avgWrQLen                      25.48                       # Average write queue length when enqueuing
system.mem_ctrls.readRowHits                   968442                       # Number of row buffer hits during reads
system.mem_ctrls.writeRowHits                  322161                       # Number of row buffer hits during writes
system.mem_ctrls.readRowHitRate                 74.34                       # Row buffer hit rate for reads
system.mem_ctrls.writeRowHitRate                43.53                       # Row buffer hit rate for writes
system.mem_ctrls.avgGap                    1154459.08                       # Average gap between requests
system.mem_ctrls.pageHitRate                    63.18                       # Row buffer hit rate, read and write combined
system.mem_ctrls_0.actEnergy               2905126560                       # Energy for activate commands per rank (pJ)
system.mem_ctrls_0.preEnergy               1585138500                       # Energy for precharge commands per rank (pJ)
system.mem_ctrls_0.readEnergy              5276637600                       # Energy for read commands per rank (pJ)
system.mem_ctrls_0.writeEnergy             2446945200                       # Energy for write commands per rank (pJ)
system.mem_ctrls_0.refreshEnergy         154836686160                       # Energy for refresh commands per rank (pJ)
system.mem_ctrls_0.actBackEnergy         312245074890                       # Energy for active background per rank (pJ)
system.mem_ctrls_0.preBackEnergy         1148466644250                       # Energy for precharge background per rank (pJ)
system.mem_ctrls_0.totalEnergy           1627762253160                       # Total energy per rank (pJ)
system.mem_ctrls_0.averagePower            686.642866                       # Core power per rank (mW)
system.mem_ctrls_0.memoryStateTime::IDLE 1904055429500                       # Time in different power states
system.mem_ctrls_0.memoryStateTime::REF   78778180000                       # Time in different power states
system.mem_ctrls_0.memoryStateTime::PRE_PDN            0                       # Time in different power states
system.mem_ctrls_0.memoryStateTime::ACT  376344251000                       # Time in different power states
system.mem_ctrls_0.memoryStateTime::ACT_PDN            0                       # Time in different power states
system.mem_ctrls_1.actEnergy               2868377400                       # Energy for activate commands per rank (pJ)
system.mem_ctrls_1.preEnergy               1565086875                       # Energy for precharge commands per rank (pJ)
system.mem_ctrls_1.readEnergy              5192974800                       # Energy for read commands per rank (pJ)
system.mem_ctrls_1.writeEnergy             2397995280                       # Energy for write commands per rank (pJ)
system.mem_ctrls_1.refreshEnergy         154836686160                       # Energy for refresh commands per rank (pJ)
system.mem_ctrls_1.actBackEnergy         307960876800                       # Energy for active background per rank (pJ)
system.mem_ctrls_1.preBackEnergy         1152224712750                       # Energy for precharge background per rank (pJ)
system.mem_ctrls_1.totalEnergy           1627046710065                       # Total energy per rank (pJ)
system.mem_ctrls_1.averagePower            686.341027                       # Core power per rank (mW)
system.mem_ctrls_1.memoryStateTime::IDLE 1909693774752                       # Time in different power states
system.mem_ctrls_1.memoryStateTime::REF   78778180000                       # Time in different power states
system.mem_ctrls_1.memoryStateTime::PRE_PDN            0                       # Time in different power states
system.mem_ctrls_1.memoryStateTime::ACT  370705171498                       # Time in different power states
system.mem_ctrls_1.memoryStateTime::ACT_PDN            0                       # Time in different power states
system.cpu_voltage_domain.voltage                   1                       # Voltage in Volts
system.cpu_clk_domain.clock                       500                       # Clock period in ticks
system.cpu0.apic_clk_domain.clock                8000                       # Clock period in ticks
system.cpu0.numCycles                      4717178888                       # number of cpu cycles simulated
system.cpu0.numWorkItemsStarted                     0                       # number of work items this cpu started
system.cpu0.numWorkItemsCompleted                   0                       # number of work items this cpu completed
system.cpu0.kern.inst.arm                           0                       # number of arm instructions executed
system.cpu0.kern.inst.quiesce                       0                       # number of quiesce instructions executed
system.cpu0.committedInsts                    2201387                       # Number of instructions committed
system.cpu0.committedOps                      4744630                       # Number of ops (including micro ops) committed
system.cpu0.num_int_alu_accesses              4646659                       # Number of integer alu accesses
system.cpu0.num_fp_alu_accesses                    39                       # Number of float alu accesses
system.cpu0.num_func_calls                     132892                       # number of times a function call or return occured
system.cpu0.num_conditional_control_insts       354447                       # number of instructions that are conditional controls
system.cpu0.num_int_insts                     4646659                       # number of integer instructions
system.cpu0.num_fp_insts                           39                       # number of float instructions
system.cpu0.num_int_register_reads            9286266                       # number of times the integer registers were read
system.cpu0.num_int_register_writes           3831572                       # number of times the integer registers were written
system.cpu0.num_fp_register_reads                  63                       # number of times the floating registers were read
system.cpu0.num_fp_register_writes                 31                       # number of times the floating registers were written
system.cpu0.num_cc_register_reads             2817360                       # number of times the CC registers were read
system.cpu0.num_cc_register_writes            1467927                       # number of times the CC registers were written
system.cpu0.num_mem_refs                      1065474                       # number of memory refs
system.cpu0.num_load_insts                     658599                       # Number of load instructions
system.cpu0.num_store_insts                    406875                       # Number of store instructions
system.cpu0.num_idle_cycles              4707016735.195044                       # Number of idle cycles
system.cpu0.num_busy_cycles              10162152.804957                       # Number of busy cycles
system.cpu0.not_idle_fraction                0.002154                       # Percentage of non-idle cycles
system.cpu0.idle_fraction                    0.997846                       # Percentage of idle cycles
system.cpu0.Branches                           527781                       # Number of branches fetched
system.cpu0.op_class::No_OpClass                76448      1.61%      1.61% # Class of executed instruction
system.cpu0.op_class::IntAlu                  3569020     75.22%     76.83% # Class of executed instruction
system.cpu0.op_class::IntMult                    8124      0.17%     77.00% # Class of executed instruction
system.cpu0.op_class::IntDiv                    25556      0.54%     77.54% # Class of executed instruction
system.cpu0.op_class::FloatAdd                     30      0.00%     77.54% # Class of executed instruction
system.cpu0.op_class::FloatCmp                      0      0.00%     77.54% # Class of executed instruction
system.cpu0.op_class::FloatCvt                      0      0.00%     77.54% # Class of executed instruction
system.cpu0.op_class::FloatMult                     0      0.00%     77.54% # Class of executed instruction
system.cpu0.op_class::FloatDiv                      0      0.00%     77.54% # Class of executed instruction
system.cpu0.op_class::FloatSqrt                     0      0.00%     77.54% # Class of executed instruction
system.cpu0.op_class::SimdAdd                       0      0.00%     77.54% # Class of executed instruction
system.cpu0.op_class::SimdAddAcc                    0      0.00%     77.54% # Class of executed instruction
system.cpu0.op_class::SimdAlu                       0      0.00%     77.54% # Class of executed instruction
system.cpu0.op_class::SimdCmp                       0      0.00%     77.54% # Class of executed instruction
system.cpu0.op_class::SimdCvt                       0      0.00%     77.54% # Class of executed instruction
system.cpu0.op_class::SimdMisc                      0      0.00%     77.54% # Class of executed instruction
system.cpu0.op_class::SimdMult                      0      0.00%     77.54% # Class of executed instruction
system.cpu0.op_class::SimdMultAcc                   0      0.00%     77.54% # Class of executed instruction
system.cpu0.op_class::SimdShift                     0      0.00%     77.54% # Class of executed instruction
system.cpu0.op_class::SimdShiftAcc                  0      0.00%     77.54% # Class of executed instruction
system.cpu0.op_class::SimdSqrt                      0      0.00%     77.54% # Class of executed instruction
system.cpu0.op_class::SimdFloatAdd                  0      0.00%     77.54% # Class of executed instruction
system.cpu0.op_class::SimdFloatAlu                  0      0.00%     77.54% # Class of executed instruction
system.cpu0.op_class::SimdFloatCmp                  0      0.00%     77.54% # Class of executed instruction
system.cpu0.op_class::SimdFloatCvt                  0      0.00%     77.54% # Class of executed instruction
system.cpu0.op_class::SimdFloatDiv                  0      0.00%     77.54% # Class of executed instruction
system.cpu0.op_class::SimdFloatMisc                 0      0.00%     77.54% # Class of executed instruction
system.cpu0.op_class::SimdFloatMult                 0      0.00%     77.54% # Class of executed instruction
system.cpu0.op_class::SimdFloatMultAcc              0      0.00%     77.54% # Class of executed instruction
system.cpu0.op_class::SimdFloatSqrt                 0      0.00%     77.54% # Class of executed instruction
system.cpu0.op_class::MemRead                  658599     13.88%     91.42% # Class of executed instruction
system.cpu0.op_class::MemWrite                 406875      8.58%    100.00% # Class of executed instruction
system.cpu0.op_class::IprAccess                     0      0.00%    100.00% # Class of executed instruction
system.cpu0.op_class::InstPrefetch                  0      0.00%    100.00% # Class of executed instruction
system.cpu0.op_class::total                   4744652                       # Class of executed instruction
system.cpu1.apic_clk_domain.clock                8000                       # Clock period in ticks
system.cpu1.numCycles                      4720396730                       # number of cpu cycles simulated
system.cpu1.numWorkItemsStarted                     0                       # number of work items this cpu started
system.cpu1.numWorkItemsCompleted                   0                       # number of work items this cpu completed
system.cpu1.kern.inst.arm                           0                       # number of arm instructions executed
system.cpu1.kern.inst.quiesce                       0                       # number of quiesce instructions executed
system.cpu1.committedInsts                    4105229                       # Number of instructions committed
system.cpu1.committedOps                      8397258                       # Number of ops (including micro ops) committed
system.cpu1.num_int_alu_accesses              8169223                       # Number of integer alu accesses
system.cpu1.num_fp_alu_accesses                   372                       # Number of float alu accesses
system.cpu1.num_func_calls                     182744                       # number of times a function call or return occured
system.cpu1.num_conditional_control_insts       685756                       # number of instructions that are conditional controls
system.cpu1.num_int_insts                     8169223                       # number of integer instructions
system.cpu1.num_fp_insts                          372                       # number of float instructions
system.cpu1.num_int_register_reads           15879597                       # number of times the integer registers were read
system.cpu1.num_int_register_writes           6730537                       # number of times the integer registers were written
system.cpu1.num_fp_register_reads                 596                       # number of times the floating registers were read
system.cpu1.num_fp_register_writes                261                       # number of times the floating registers were written
system.cpu1.num_cc_register_reads             5175579                       # number of times the CC registers were read
system.cpu1.num_cc_register_writes            3116448                       # number of times the CC registers were written
system.cpu1.num_mem_refs                      1688141                       # number of memory refs
system.cpu1.num_load_insts                    1056970                       # Number of load instructions
system.cpu1.num_store_insts                    631171                       # Number of store instructions
system.cpu1.num_idle_cycles              4699645525.426331                       # Number of idle cycles
system.cpu1.num_busy_cycles              20751204.573669                       # Number of busy cycles
system.cpu1.not_idle_fraction                0.004396                       # Percentage of non-idle cycles
system.cpu1.idle_fraction                    0.995604                       # Percentage of idle cycles
system.cpu1.Branches                           934160                       # Number of branches fetched
system.cpu1.op_class::No_OpClass                82966      0.99%      0.99% # Class of executed instruction
system.cpu1.op_class::IntAlu                  6590710     78.49%     79.47% # Class of executed instruction
system.cpu1.op_class::IntMult                    9776      0.12%     79.59% # Class of executed instruction
system.cpu1.op_class::IntDiv                    25507      0.30%     79.89% # Class of executed instruction
system.cpu1.op_class::FloatAdd                    244      0.00%     79.90% # Class of executed instruction
system.cpu1.op_class::FloatCmp                      0      0.00%     79.90% # Class of executed instruction
system.cpu1.op_class::FloatCvt                      0      0.00%     79.90% # Class of executed instruction
system.cpu1.op_class::FloatMult                     0      0.00%     79.90% # Class of executed instruction
system.cpu1.op_class::FloatDiv                      0      0.00%     79.90% # Class of executed instruction
system.cpu1.op_class::FloatSqrt                     0      0.00%     79.90% # Class of executed instruction
system.cpu1.op_class::SimdAdd                       0      0.00%     79.90% # Class of executed instruction
system.cpu1.op_class::SimdAddAcc                    0      0.00%     79.90% # Class of executed instruction
system.cpu1.op_class::SimdAlu                       0      0.00%     79.90% # Class of executed instruction
system.cpu1.op_class::SimdCmp                       0      0.00%     79.90% # Class of executed instruction
system.cpu1.op_class::SimdCvt                       0      0.00%     79.90% # Class of executed instruction
system.cpu1.op_class::SimdMisc                      0      0.00%     79.90% # Class of executed instruction
system.cpu1.op_class::SimdMult                      0      0.00%     79.90% # Class of executed instruction
system.cpu1.op_class::SimdMultAcc                   0      0.00%     79.90% # Class of executed instruction
system.cpu1.op_class::SimdShift                     0      0.00%     79.90% # Class of executed instruction
system.cpu1.op_class::SimdShiftAcc                  0      0.00%     79.90% # Class of executed instruction
system.cpu1.op_class::SimdSqrt                      0      0.00%     79.90% # Class of executed instruction
system.cpu1.op_class::SimdFloatAdd                  0      0.00%     79.90% # Class of executed instruction
system.cpu1.op_class::SimdFloatAlu                  0      0.00%     79.90% # Class of executed instruction
system.cpu1.op_class::SimdFloatCmp                  0      0.00%     79.90% # Class of executed instruction
system.cpu1.op_class::SimdFloatCvt                  0      0.00%     79.90% # Class of executed instruction
system.cpu1.op_class::SimdFloatDiv                  0      0.00%     79.90% # Class of executed instruction
system.cpu1.op_class::SimdFloatMisc                 0      0.00%     79.90% # Class of executed instruction
system.cpu1.op_class::SimdFloatMult                 0      0.00%     79.90% # Class of executed instruction
system.cpu1.op_class::SimdFloatMultAcc              0      0.00%     79.90% # Class of executed instruction
system.cpu1.op_class::SimdFloatSqrt                 0      0.00%     79.90% # Class of executed instruction
system.cpu1.op_class::MemRead                 1056970     12.59%     92.48% # Class of executed instruction
system.cpu1.op_class::MemWrite                 631171      7.52%    100.00% # Class of executed instruction
system.cpu1.op_class::IprAccess                     0      0.00%    100.00% # Class of executed instruction
system.cpu1.op_class::InstPrefetch                  0      0.00%    100.00% # Class of executed instruction
system.cpu1.op_class::total                   8397344                       # Class of executed instruction
system.cpu2.apic_clk_domain.clock                8000                       # Clock period in ticks
system.cpu2.numCycles                      4719243390                       # number of cpu cycles simulated
system.cpu2.numWorkItemsStarted                     0                       # number of work items this cpu started
system.cpu2.numWorkItemsCompleted                   0                       # number of work items this cpu completed
system.cpu2.kern.inst.arm                           0                       # number of arm instructions executed
system.cpu2.kern.inst.quiesce                       0                       # number of quiesce instructions executed
system.cpu2.committedInsts                 1297183842                       # Number of instructions committed
system.cpu2.committedOps                   2348112502                       # Number of ops (including micro ops) committed
system.cpu2.num_int_alu_accesses           1506151721                       # Number of integer alu accesses
system.cpu2.num_fp_alu_accesses            1130300518                       # Number of float alu accesses
system.cpu2.num_func_calls                     781625                       # number of times a function call or return occured
system.cpu2.num_conditional_control_insts    160833101                       # number of instructions that are conditional controls
system.cpu2.num_int_insts                  1506151721                       # number of integer instructions
system.cpu2.num_fp_insts                   1130300518                       # number of float instructions
system.cpu2.num_int_register_reads         2939018524                       # number of times the integer registers were read
system.cpu2.num_int_register_writes        1033329539                       # number of times the integer registers were written
system.cpu2.num_fp_register_reads          1382500686                       # number of times the floating registers were read
system.cpu2.num_fp_register_writes         1075410587                       # number of times the floating registers were written
system.cpu2.num_cc_register_reads           938659708                       # number of times the CC registers were read
system.cpu2.num_cc_register_writes          527858777                       # number of times the CC registers were written
system.cpu2.num_mem_refs                    388208604                       # number of memory refs
system.cpu2.num_load_insts                  349873432                       # Number of load instructions
system.cpu2.num_store_insts                  38335172                       # Number of store instructions
system.cpu2.num_idle_cycles              23220833.159809                       # Number of idle cycles
system.cpu2.num_busy_cycles              4696022556.840191                       # Number of busy cycles
system.cpu2.not_idle_fraction                0.995080                       # Percentage of non-idle cycles
system.cpu2.idle_fraction                    0.004920                       # Percentage of idle cycles
system.cpu2.Branches                        166200214                       # Number of branches fetched
system.cpu2.op_class::No_OpClass              3897101      0.17%      0.17% # Class of executed instruction
system.cpu2.op_class::IntAlu               1228311081     52.31%     52.48% # Class of executed instruction
system.cpu2.op_class::IntMult                 4266880      0.18%     52.66% # Class of executed instruction
system.cpu2.op_class::IntDiv                      728      0.00%     52.66% # Class of executed instruction
system.cpu2.op_class::FloatAdd              723444434     30.81%     83.47% # Class of executed instruction
system.cpu2.op_class::FloatCmp                      0      0.00%     83.47% # Class of executed instruction
system.cpu2.op_class::FloatCvt                      0      0.00%     83.47% # Class of executed instruction
system.cpu2.op_class::FloatMult                     0      0.00%     83.47% # Class of executed instruction
system.cpu2.op_class::FloatDiv                      0      0.00%     83.47% # Class of executed instruction
system.cpu2.op_class::FloatSqrt                     0      0.00%     83.47% # Class of executed instruction
system.cpu2.op_class::SimdAdd                       0      0.00%     83.47% # Class of executed instruction
system.cpu2.op_class::SimdAddAcc                    0      0.00%     83.47% # Class of executed instruction
system.cpu2.op_class::SimdAlu                       0      0.00%     83.47% # Class of executed instruction
system.cpu2.op_class::SimdCmp                       0      0.00%     83.47% # Class of executed instruction
system.cpu2.op_class::SimdCvt                       0      0.00%     83.47% # Class of executed instruction
system.cpu2.op_class::SimdMisc                      0      0.00%     83.47% # Class of executed instruction
system.cpu2.op_class::SimdMult                      0      0.00%     83.47% # Class of executed instruction
system.cpu2.op_class::SimdMultAcc                   0      0.00%     83.47% # Class of executed instruction
system.cpu2.op_class::SimdShift                     0      0.00%     83.47% # Class of executed instruction
system.cpu2.op_class::SimdShiftAcc                  0      0.00%     83.47% # Class of executed instruction
system.cpu2.op_class::SimdSqrt                      0      0.00%     83.47% # Class of executed instruction
system.cpu2.op_class::SimdFloatAdd                  0      0.00%     83.47% # Class of executed instruction
system.cpu2.op_class::SimdFloatAlu                  0      0.00%     83.47% # Class of executed instruction
system.cpu2.op_class::SimdFloatCmp                  0      0.00%     83.47% # Class of executed instruction
system.cpu2.op_class::SimdFloatCvt                  0      0.00%     83.47% # Class of executed instruction
system.cpu2.op_class::SimdFloatDiv                  0      0.00%     83.47% # Class of executed instruction
system.cpu2.op_class::SimdFloatMisc                 0      0.00%     83.47% # Class of executed instruction
system.cpu2.op_class::SimdFloatMult                 0      0.00%     83.47% # Class of executed instruction
system.cpu2.op_class::SimdFloatMultAcc              0      0.00%     83.47% # Class of executed instruction
system.cpu2.op_class::SimdFloatSqrt                 0      0.00%     83.47% # Class of executed instruction
system.cpu2.op_class::MemRead               349873432     14.90%     98.37% # Class of executed instruction
system.cpu2.op_class::MemWrite               38335172      1.63%    100.00% # Class of executed instruction
system.cpu2.op_class::IprAccess                     0      0.00%    100.00% # Class of executed instruction
system.cpu2.op_class::InstPrefetch                  0      0.00%    100.00% # Class of executed instruction
system.cpu2.op_class::total                2348128828                       # Class of executed instruction
system.cpu3.apic_clk_domain.clock                8000                       # Clock period in ticks
system.cpu3.numCycles                      4716282419                       # number of cpu cycles simulated
system.cpu3.numWorkItemsStarted                     0                       # number of work items this cpu started
system.cpu3.numWorkItemsCompleted                   0                       # number of work items this cpu completed
system.cpu3.kern.inst.arm                           0                       # number of arm instructions executed
system.cpu3.kern.inst.quiesce                       0                       # number of quiesce instructions executed
system.cpu3.committedInsts                    4722390                       # Number of instructions committed
system.cpu3.committedOps                      9501234                       # Number of ops (including micro ops) committed
system.cpu3.num_int_alu_accesses              9329930                       # Number of integer alu accesses
system.cpu3.num_fp_alu_accesses                  1778                       # Number of float alu accesses
system.cpu3.num_func_calls                     245152                       # number of times a function call or return occured
system.cpu3.num_conditional_control_insts       818984                       # number of instructions that are conditional controls
system.cpu3.num_int_insts                     9329930                       # number of integer instructions
system.cpu3.num_fp_insts                         1778                       # number of float instructions
system.cpu3.num_int_register_reads           18454013                       # number of times the integer registers were read
system.cpu3.num_int_register_writes           7595435                       # number of times the integer registers were written
system.cpu3.num_fp_register_reads                2988                       # number of times the floating registers were read
system.cpu3.num_fp_register_writes               1416                       # number of times the floating registers were written
system.cpu3.num_cc_register_reads             6113283                       # number of times the CC registers were read
system.cpu3.num_cc_register_writes            3240262                       # number of times the CC registers were written
system.cpu3.num_mem_refs                      2109561                       # number of memory refs
system.cpu3.num_load_insts                    1366990                       # Number of load instructions
system.cpu3.num_store_insts                    742571                       # Number of store instructions
system.cpu3.num_idle_cycles              4695156666.807464                       # Number of idle cycles
system.cpu3.num_busy_cycles              21125752.192537                       # Number of busy cycles
system.cpu3.not_idle_fraction                0.004479                       # Percentage of non-idle cycles
system.cpu3.idle_fraction                    0.995521                       # Percentage of idle cycles
system.cpu3.Branches                          1109908                       # Number of branches fetched
system.cpu3.op_class::No_OpClass                74010      0.78%      0.78% # Class of executed instruction
system.cpu3.op_class::IntAlu                  7282849     76.65%     77.43% # Class of executed instruction
system.cpu3.op_class::IntMult                    8472      0.09%     77.52% # Class of executed instruction
system.cpu3.op_class::IntDiv                    25087      0.26%     77.78% # Class of executed instruction
system.cpu3.op_class::FloatAdd                   1344      0.01%     77.80% # Class of executed instruction
system.cpu3.op_class::FloatCmp                      0      0.00%     77.80% # Class of executed instruction
system.cpu3.op_class::FloatCvt                      0      0.00%     77.80% # Class of executed instruction
system.cpu3.op_class::FloatMult                     0      0.00%     77.80% # Class of executed instruction
system.cpu3.op_class::FloatDiv                      0      0.00%     77.80% # Class of executed instruction
system.cpu3.op_class::FloatSqrt                     0      0.00%     77.80% # Class of executed instruction
system.cpu3.op_class::SimdAdd                       0      0.00%     77.80% # Class of executed instruction
system.cpu3.op_class::SimdAddAcc                    0      0.00%     77.80% # Class of executed instruction
system.cpu3.op_class::SimdAlu                       0      0.00%     77.80% # Class of executed instruction
system.cpu3.op_class::SimdCmp                       0      0.00%     77.80% # Class of executed instruction
system.cpu3.op_class::SimdCvt                       0      0.00%     77.80% # Class of executed instruction
system.cpu3.op_class::SimdMisc                      0      0.00%     77.80% # Class of executed instruction
system.cpu3.op_class::SimdMult                      0      0.00%     77.80% # Class of executed instruction
system.cpu3.op_class::SimdMultAcc                   0      0.00%     77.80% # Class of executed instruction
system.cpu3.op_class::SimdShift                     0      0.00%     77.80% # Class of executed instruction
system.cpu3.op_class::SimdShiftAcc                  0      0.00%     77.80% # Class of executed instruction
system.cpu3.op_class::SimdSqrt                      0      0.00%     77.80% # Class of executed instruction
system.cpu3.op_class::SimdFloatAdd                  0      0.00%     77.80% # Class of executed instruction
system.cpu3.op_class::SimdFloatAlu                  0      0.00%     77.80% # Class of executed instruction
system.cpu3.op_class::SimdFloatCmp                  0      0.00%     77.80% # Class of executed instruction
system.cpu3.op_class::SimdFloatCvt                  0      0.00%     77.80% # Class of executed instruction
system.cpu3.op_class::SimdFloatDiv                  0      0.00%     77.80% # Class of executed instruction
system.cpu3.op_class::SimdFloatMisc                 0      0.00%     77.80% # Class of executed instruction
system.cpu3.op_class::SimdFloatMult                 0      0.00%     77.80% # Class of executed instruction
system.cpu3.op_class::SimdFloatMultAcc              0      0.00%     77.80% # Class of executed instruction
system.cpu3.op_class::SimdFloatSqrt                 0      0.00%     77.80% # Class of executed instruction
system.cpu3.op_class::MemRead                 1366990     14.39%     92.18% # Class of executed instruction
system.cpu3.op_class::MemWrite                 742571      7.82%    100.00% # Class of executed instruction
system.cpu3.op_class::IprAccess                     0      0.00%    100.00% # Class of executed instruction
system.cpu3.op_class::InstPrefetch                  0      0.00%    100.00% # Class of executed instruction
system.cpu3.op_class::total                   9501323                       # Class of executed instruction
system.iobus.trans_dist::ReadReq                  401                       # Transaction distribution
system.iobus.trans_dist::ReadResp                 401                       # Transaction distribution
system.iobus.trans_dist::WriteReq                3064                       # Transaction distribution
system.iobus.trans_dist::WriteResp               3064                       # Transaction distribution
system.iobus.trans_dist::MessageReq                54                       # Transaction distribution
system.iobus.trans_dist::MessageResp               54                       # Transaction distribution
system.iobus.pkt_count_system.pc.south_bridge.io_apic.int_master::system.ruby.l1_cntrl0.sequencer.pio-slave-port           22                       # Packet count per connected master and slave (bytes)
system.iobus.pkt_count_system.pc.south_bridge.io_apic.int_master::system.ruby.l1_cntrl1.sequencer.pio-slave-port           22                       # Packet count per connected master and slave (bytes)
system.iobus.pkt_count_system.pc.south_bridge.io_apic.int_master::system.ruby.l1_cntrl2.sequencer.pio-slave-port           20                       # Packet count per connected master and slave (bytes)
system.iobus.pkt_count_system.pc.south_bridge.io_apic.int_master::system.ruby.l1_cntrl3.sequencer.pio-slave-port           22                       # Packet count per connected master and slave (bytes)
system.iobus.pkt_count_system.pc.south_bridge.io_apic.int_master::total           86                       # Packet count per connected master and slave (bytes)
system.iobus.pkt_count_system.ruby.l1_cntrl0.sequencer.mem-master-port::system.pc.south_bridge.ide.pio          494                       # Packet count per connected master and slave (bytes)
system.iobus.pkt_count_system.ruby.l1_cntrl0.sequencer.mem-master-port::system.pc.south_bridge.io_apic.pio            8                       # Packet count per connected master and slave (bytes)
system.iobus.pkt_count_system.ruby.l1_cntrl0.sequencer.mem-master-port::system.pc.com_1.pio            2                       # Packet count per connected master and slave (bytes)
system.iobus.pkt_count_system.ruby.l1_cntrl0.sequencer.mem-master-port::system.ruby.l1_cntrl0.sequencer.pio-slave-port         1210                       # Packet count per connected master and slave (bytes)
system.iobus.pkt_count_system.ruby.l1_cntrl0.sequencer.mem-master-port::system.ruby.l1_cntrl1.sequencer.pio-slave-port            2                       # Packet count per connected master and slave (bytes)
system.iobus.pkt_count_system.ruby.l1_cntrl0.sequencer.mem-master-port::total         1716                       # Packet count per connected master and slave (bytes)
system.iobus.pkt_count_system.ruby.l1_cntrl1.sequencer.mem-master-port::system.pc.south_bridge.ide.pio          596                       # Packet count per connected master and slave (bytes)
system.iobus.pkt_count_system.ruby.l1_cntrl1.sequencer.mem-master-port::system.pc.south_bridge.io_apic.pio            8                       # Packet count per connected master and slave (bytes)
system.iobus.pkt_count_system.ruby.l1_cntrl1.sequencer.mem-master-port::system.ruby.l1_cntrl0.sequencer.pio-slave-port            2                       # Packet count per connected master and slave (bytes)
system.iobus.pkt_count_system.ruby.l1_cntrl1.sequencer.mem-master-port::system.ruby.l1_cntrl1.sequencer.pio-slave-port         1234                       # Packet count per connected master and slave (bytes)
system.iobus.pkt_count_system.ruby.l1_cntrl1.sequencer.mem-master-port::system.ruby.l1_cntrl2.sequencer.pio-slave-port            6                       # Packet count per connected master and slave (bytes)
system.iobus.pkt_count_system.ruby.l1_cntrl1.sequencer.mem-master-port::total         1846                       # Packet count per connected master and slave (bytes)
system.iobus.pkt_count_system.ruby.l1_cntrl2.sequencer.mem-master-port::system.pc.south_bridge.ide.pio          324                       # Packet count per connected master and slave (bytes)
system.iobus.pkt_count_system.ruby.l1_cntrl2.sequencer.mem-master-port::system.ruby.l1_cntrl1.sequencer.pio-slave-port            4                       # Packet count per connected master and slave (bytes)
system.iobus.pkt_count_system.ruby.l1_cntrl2.sequencer.mem-master-port::system.ruby.l1_cntrl2.sequencer.pio-slave-port         1226                       # Packet count per connected master and slave (bytes)
system.iobus.pkt_count_system.ruby.l1_cntrl2.sequencer.mem-master-port::system.ruby.l1_cntrl3.sequencer.pio-slave-port            2                       # Packet count per connected master and slave (bytes)
system.iobus.pkt_count_system.ruby.l1_cntrl2.sequencer.mem-master-port::total         1556                       # Packet count per connected master and slave (bytes)
system.iobus.pkt_count_system.ruby.l1_cntrl3.sequencer.mem-master-port::system.pc.south_bridge.ide.pio          426                       # Packet count per connected master and slave (bytes)
system.iobus.pkt_count_system.ruby.l1_cntrl3.sequencer.mem-master-port::system.pc.south_bridge.io_apic.pio            6                       # Packet count per connected master and slave (bytes)
system.iobus.pkt_count_system.ruby.l1_cntrl3.sequencer.mem-master-port::system.pc.com_1.pio          174                       # Packet count per connected master and slave (bytes)
system.iobus.pkt_count_system.ruby.l1_cntrl3.sequencer.mem-master-port::system.ruby.l1_cntrl0.sequencer.pio-slave-port            2                       # Packet count per connected master and slave (bytes)
system.iobus.pkt_count_system.ruby.l1_cntrl3.sequencer.mem-master-port::system.ruby.l1_cntrl1.sequencer.pio-slave-port            2                       # Packet count per connected master and slave (bytes)
system.iobus.pkt_count_system.ruby.l1_cntrl3.sequencer.mem-master-port::system.ruby.l1_cntrl2.sequencer.pio-slave-port            2                       # Packet count per connected master and slave (bytes)
system.iobus.pkt_count_system.ruby.l1_cntrl3.sequencer.mem-master-port::system.ruby.l1_cntrl3.sequencer.pio-slave-port         1222                       # Packet count per connected master and slave (bytes)
system.iobus.pkt_count_system.ruby.l1_cntrl3.sequencer.mem-master-port::total         1834                       # Packet count per connected master and slave (bytes)
system.iobus.pkt_count::total                    7038                       # Packet count per connected master and slave (bytes)
system.iobus.pkt_size_system.pc.south_bridge.io_apic.int_master::system.ruby.l1_cntrl0.sequencer.pio-slave-port           44                       # Cumulative packet size per connected master and slave (bytes)
system.iobus.pkt_size_system.pc.south_bridge.io_apic.int_master::system.ruby.l1_cntrl1.sequencer.pio-slave-port           44                       # Cumulative packet size per connected master and slave (bytes)
system.iobus.pkt_size_system.pc.south_bridge.io_apic.int_master::system.ruby.l1_cntrl2.sequencer.pio-slave-port           40                       # Cumulative packet size per connected master and slave (bytes)
system.iobus.pkt_size_system.pc.south_bridge.io_apic.int_master::system.ruby.l1_cntrl3.sequencer.pio-slave-port           44                       # Cumulative packet size per connected master and slave (bytes)
system.iobus.pkt_size_system.pc.south_bridge.io_apic.int_master::total          172                       # Cumulative packet size per connected master and slave (bytes)
system.iobus.pkt_size_system.ruby.l1_cntrl0.sequencer.mem-master-port::system.pc.south_bridge.ide.pio          280                       # Cumulative packet size per connected master and slave (bytes)
system.iobus.pkt_size_system.ruby.l1_cntrl0.sequencer.mem-master-port::system.pc.south_bridge.io_apic.pio           16                       # Cumulative packet size per connected master and slave (bytes)
system.iobus.pkt_size_system.ruby.l1_cntrl0.sequencer.mem-master-port::system.pc.com_1.pio            1                       # Cumulative packet size per connected master and slave (bytes)
system.iobus.pkt_size_system.ruby.l1_cntrl0.sequencer.mem-master-port::system.ruby.l1_cntrl0.sequencer.pio-slave-port         2420                       # Cumulative packet size per connected master and slave (bytes)
system.iobus.pkt_size_system.ruby.l1_cntrl0.sequencer.mem-master-port::system.ruby.l1_cntrl1.sequencer.pio-slave-port            4                       # Cumulative packet size per connected master and slave (bytes)
system.iobus.pkt_size_system.ruby.l1_cntrl0.sequencer.mem-master-port::total         2721                       # Cumulative packet size per connected master and slave (bytes)
system.iobus.pkt_size_system.ruby.l1_cntrl1.sequencer.mem-master-port::system.pc.south_bridge.ide.pio          340                       # Cumulative packet size per connected master and slave (bytes)
system.iobus.pkt_size_system.ruby.l1_cntrl1.sequencer.mem-master-port::system.pc.south_bridge.io_apic.pio           16                       # Cumulative packet size per connected master and slave (bytes)
system.iobus.pkt_size_system.ruby.l1_cntrl1.sequencer.mem-master-port::system.ruby.l1_cntrl0.sequencer.pio-slave-port            4                       # Cumulative packet size per connected master and slave (bytes)
system.iobus.pkt_size_system.ruby.l1_cntrl1.sequencer.mem-master-port::system.ruby.l1_cntrl1.sequencer.pio-slave-port         2468                       # Cumulative packet size per connected master and slave (bytes)
system.iobus.pkt_size_system.ruby.l1_cntrl1.sequencer.mem-master-port::system.ruby.l1_cntrl2.sequencer.pio-slave-port           12                       # Cumulative packet size per connected master and slave (bytes)
system.iobus.pkt_size_system.ruby.l1_cntrl1.sequencer.mem-master-port::total         2840                       # Cumulative packet size per connected master and slave (bytes)
system.iobus.pkt_size_system.ruby.l1_cntrl2.sequencer.mem-master-port::system.pc.south_bridge.ide.pio          180                       # Cumulative packet size per connected master and slave (bytes)
system.iobus.pkt_size_system.ruby.l1_cntrl2.sequencer.mem-master-port::system.ruby.l1_cntrl1.sequencer.pio-slave-port            8                       # Cumulative packet size per connected master and slave (bytes)
system.iobus.pkt_size_system.ruby.l1_cntrl2.sequencer.mem-master-port::system.ruby.l1_cntrl2.sequencer.pio-slave-port         2452                       # Cumulative packet size per connected master and slave (bytes)
system.iobus.pkt_size_system.ruby.l1_cntrl2.sequencer.mem-master-port::system.ruby.l1_cntrl3.sequencer.pio-slave-port            4                       # Cumulative packet size per connected master and slave (bytes)
system.iobus.pkt_size_system.ruby.l1_cntrl2.sequencer.mem-master-port::total         2644                       # Cumulative packet size per connected master and slave (bytes)
system.iobus.pkt_size_system.ruby.l1_cntrl3.sequencer.mem-master-port::system.pc.south_bridge.ide.pio          240                       # Cumulative packet size per connected master and slave (bytes)
system.iobus.pkt_size_system.ruby.l1_cntrl3.sequencer.mem-master-port::system.pc.south_bridge.io_apic.pio           12                       # Cumulative packet size per connected master and slave (bytes)
system.iobus.pkt_size_system.ruby.l1_cntrl3.sequencer.mem-master-port::system.pc.com_1.pio           87                       # Cumulative packet size per connected master and slave (bytes)
system.iobus.pkt_size_system.ruby.l1_cntrl3.sequencer.mem-master-port::system.ruby.l1_cntrl0.sequencer.pio-slave-port            4                       # Cumulative packet size per connected master and slave (bytes)
system.iobus.pkt_size_system.ruby.l1_cntrl3.sequencer.mem-master-port::system.ruby.l1_cntrl1.sequencer.pio-slave-port            4                       # Cumulative packet size per connected master and slave (bytes)
system.iobus.pkt_size_system.ruby.l1_cntrl3.sequencer.mem-master-port::system.ruby.l1_cntrl2.sequencer.pio-slave-port            4                       # Cumulative packet size per connected master and slave (bytes)
system.iobus.pkt_size_system.ruby.l1_cntrl3.sequencer.mem-master-port::system.ruby.l1_cntrl3.sequencer.pio-slave-port         2444                       # Cumulative packet size per connected master and slave (bytes)
system.iobus.pkt_size_system.ruby.l1_cntrl3.sequencer.mem-master-port::total         2795                       # Cumulative packet size per connected master and slave (bytes)
system.iobus.pkt_size::total                    11172                       # Cumulative packet size per connected master and slave (bytes)
system.iobus.reqLayer2.occupancy              1597500                       # Layer occupancy (ticks)
system.iobus.reqLayer2.utilization                0.0                       # Layer utilization (%)
system.iobus.reqLayer8.occupancy                20997                       # Layer occupancy (ticks)
system.iobus.reqLayer8.utilization                0.0                       # Layer utilization (%)
system.iobus.reqLayer12.occupancy              112000                       # Layer occupancy (ticks)
system.iobus.reqLayer12.utilization               0.0                       # Layer utilization (%)
system.iobus.reqLayer17.occupancy             1485990                       # Layer occupancy (ticks)
system.iobus.reqLayer17.utilization               0.0                       # Layer utilization (%)
system.iobus.reqLayer18.occupancy             1525989                       # Layer occupancy (ticks)
system.iobus.reqLayer18.utilization               0.0                       # Layer utilization (%)
system.iobus.reqLayer19.occupancy             1662977                       # Layer occupancy (ticks)
system.iobus.reqLayer19.utilization               0.0                       # Layer utilization (%)
system.iobus.reqLayer20.occupancy             1495988                       # Layer occupancy (ticks)
system.iobus.reqLayer20.utilization               0.0                       # Layer utilization (%)
system.iobus.respLayer0.occupancy               74960                       # Layer occupancy (ticks)
system.iobus.respLayer0.utilization               0.0                       # Layer utilization (%)
system.iobus.respLayer2.occupancy             1247500                       # Layer occupancy (ticks)
system.iobus.respLayer2.utilization               0.0                       # Layer utilization (%)
system.iobus.respLayer4.occupancy             1334000                       # Layer occupancy (ticks)
system.iobus.respLayer4.utilization               0.0                       # Layer utilization (%)
system.iobus.respLayer6.occupancy             1151500                       # Layer occupancy (ticks)
system.iobus.respLayer6.utilization               0.0                       # Layer utilization (%)
system.iobus.respLayer8.occupancy             1367500                       # Layer occupancy (ticks)
system.iobus.respLayer8.utilization               0.0                       # Layer utilization (%)
system.pc.south_bridge.ide.disks.dma_read_full_pages          356                       # Number of full page size DMA reads (not PRD).
system.pc.south_bridge.ide.disks.dma_read_bytes      1458176                       # Number of bytes transfered via DMA reads (not PRD).
system.pc.south_bridge.ide.disks.dma_read_txs          356                       # Number of DMA read transactions (not PRD).
system.pc.south_bridge.ide.disks.dma_write_full_pages            0                       # Number of full page size DMA writes.
system.pc.south_bridge.ide.disks.dma_write_bytes            0                       # Number of bytes transfered via DMA writes.
system.pc.south_bridge.ide.disks.dma_write_txs            0                       # Number of DMA write transactions.
system.ruby.clk_domain.clock                      500                       # Clock period in ticks
system.ruby.delayHist::bucket_size                  4                       # delay histogram for all message
system.ruby.delayHist::max_bucket                  39                       # delay histogram for all message
system.ruby.delayHist::samples               14877863                       # delay histogram for all message
system.ruby.delayHist::mean                  0.596463                       # delay histogram for all message
system.ruby.delayHist::stdev                 2.100032                       # delay histogram for all message
system.ruby.delayHist                    |    13773382     92.58%     92.58% |        1866      0.01%     92.59% |     1101885      7.41%    100.00% |         118      0.00%    100.00% |         595      0.00%    100.00% |           4      0.00%    100.00% |           8      0.00%    100.00% |           3      0.00%    100.00% |           0      0.00%    100.00% |           2      0.00%    100.00% # delay histogram for all message
system.ruby.delayHist::total                 14877863                       # delay histogram for all message
system.ruby.outstanding_req_hist_seqr::bucket_size            1                      
system.ruby.outstanding_req_hist_seqr::max_bucket            9                      
system.ruby.outstanding_req_hist_seqr::samples   2273991175                      
system.ruby.outstanding_req_hist_seqr::mean     1.001962                      
system.ruby.outstanding_req_hist_seqr::gmean     1.001361                      
system.ruby.outstanding_req_hist_seqr::stdev     0.044256                      
system.ruby.outstanding_req_hist_seqr    |           0      0.00%      0.00% |  2269528610     99.80%     99.80% |     4462565      0.20%    100.00% |           0      0.00%    100.00% |           0      0.00%    100.00% |           0      0.00%    100.00% |           0      0.00%    100.00% |           0      0.00%    100.00% |           0      0.00%    100.00% |           0      0.00%    100.00%
system.ruby.outstanding_req_hist_seqr::total   2273991175                      
system.ruby.latency_hist_seqr::bucket_size          256                      
system.ruby.latency_hist_seqr::max_bucket         2559                      
system.ruby.latency_hist_seqr::samples     2273991175                      
system.ruby.latency_hist_seqr::mean          1.089379                      
system.ruby.latency_hist_seqr::gmean         1.004379                      
system.ruby.latency_hist_seqr::stdev         4.023675                      
[...]
system.ruby.DMA_Controller.WriteRequest::total          128                      
system.ruby.DMA_Controller.Data          |       22997    100.00%    100.00% |           0      0.00%    100.00%
system.ruby.DMA_Controller.Data::total          22997                      
system.ruby.DMA_Controller.Ack           |         128    100.00%    100.00% |           0      0.00%    100.00%
system.ruby.DMA_Controller.Ack::total             128                      
system.ruby.DMA_Controller.READY.ReadRequest |       22997    100.00%    100.00% |           0      0.00%    100.00%
system.ruby.DMA_Controller.READY.ReadRequest::total        22997                      
system.ruby.DMA_Controller.READY.WriteRequest |         128    100.00%    100.00% |           0      0.00%    100.00%
system.ruby.DMA_Controller.READY.WriteRequest::total          128                      
system.ruby.DMA_Controller.BUSY_RD.Data  |       22997    100.00%    100.00% |           0      0.00%    100.00%
system.ruby.DMA_Controller.BUSY_RD.Data::total        22997                      
system.ruby.DMA_Controller.BUSY_WR.Ack   |         128    100.00%    100.00% |           0      0.00%    100.00%
system.ruby.DMA_Controller.BUSY_WR.Ack::total          128                      
system.ruby.L1Cache_Controller.Load      |     1076041      0.28%      0.28% |     1402929      0.37%      0.65% |   354121098     93.50%     94.15% |    22145981      5.85%    100.00%
system.ruby.L1Cache_Controller.Load::total    378746049                      
system.ruby.L1Cache_Controller.Ifetch    |     5503430      0.28%      0.28% |     7837243      0.40%      0.67% |  1863977756     94.29%     94.96% |    99576202      5.04%    100.00%
system.ruby.L1Cache_Controller.Ifetch::total   1976894631                      
system.ruby.L1Cache_Controller.Store     |      840305      1.54%      1.54% |     1143709      2.10%      3.64% |    39875717     73.22%     76.86% |    12602082     23.14%    100.00%
system.ruby.L1Cache_Controller.Store::total     54461813                      
system.ruby.L1Cache_Controller.Inv       |       22190     22.89%     22.89% |       29420     30.34%     53.23% |       17033     17.57%     70.80% |       28317     29.20%    100.00%
system.ruby.L1Cache_Controller.Inv::total        96960                      
system.ruby.L1Cache_Controller.L1_Replacement |      107423      3.58%      3.58% |      131856      4.39%      7.96% |     2292187     76.29%     84.26% |      472952     15.74%    100.00%
system.ruby.L1Cache_Controller.L1_Replacement::total      3004418                      
system.ruby.L1Cache_Controller.Fwd_GETX  |         586     19.62%     19.62% |        1092     36.57%     56.20% |         301     10.08%     66.28% |        1007     33.72%    100.00%
system.ruby.L1Cache_Controller.Fwd_GETX::total         2986                      
system.ruby.L1Cache_Controller.Fwd_GETS  |        6476     35.95%     35.95% |        5246     29.12%     65.07% |        2486     13.80%     78.87% |        3807     21.13%    100.00%
system.ruby.L1Cache_Controller.Fwd_GETS::total        18015                      
system.ruby.L1Cache_Controller.Data      |         161     10.64%     10.64% |         131      8.66%     19.30% |         380     25.12%     44.42% |         841     55.58%    100.00%
system.ruby.L1Cache_Controller.Data::total         1513                      
system.ruby.L1Cache_Controller.Data_Exclusive |       27841      1.33%      1.33% |       53784      2.57%      3.90% |     1731570     82.69%     86.59% |      280826     13.41%    100.00%
system.ruby.L1Cache_Controller.Data_Exclusive::total      2094021                      
system.ruby.L1Cache_Controller.DataS_fromL1 |        6280     34.86%     34.86% |        3671     20.38%     55.24% |        1831     10.16%     65.40% |        6233     34.60%    100.00%
system.ruby.L1Cache_Controller.DataS_fromL1::total        18015                      
system.ruby.L1Cache_Controller.Data_all_Acks |       84548      9.05%      9.05% |       86500      9.26%     18.32% |      565452     60.56%     78.87% |      197261     21.13%    100.00%
system.ruby.L1Cache_Controller.Data_all_Acks::total       933761                      
system.ruby.L1Cache_Controller.Ack       |       13640     47.44%     47.44% |        4358     15.16%     62.59% |        5662     19.69%     82.28% |        5094     17.72%    100.00%
system.ruby.L1Cache_Controller.Ack::total        28754                      
system.ruby.L1Cache_Controller.Ack_all   |        6201     39.35%     39.35% |        3175     20.15%     59.49% |        2845     18.05%     77.54% |        3539     22.46%    100.00%
system.ruby.L1Cache_Controller.Ack_all::total        15760                      
system.ruby.L1Cache_Controller.WB_Ack    |       37383      1.38%      1.38% |       68662      2.53%      3.91% |     2229276     82.20%     86.11% |      376567     13.89%    100.00%
system.ruby.L1Cache_Controller.WB_Ack::total      2711888                      
system.ruby.L1Cache_Controller.NP.Load   |       37673      1.76%      1.76% |       63309      2.95%      4.71% |     1749908     81.54%     86.25% |      295122     13.75%    100.00%
system.ruby.L1Cache_Controller.NP.Load::total      2146012                      
system.ruby.L1Cache_Controller.NP.Ifetch |       56888     25.05%     25.05% |       48254     21.25%     46.30% |       43475     19.14%     65.44% |       78483     34.56%    100.00%
system.ruby.L1Cache_Controller.NP.Ifetch::total       227100                      
system.ruby.L1Cache_Controller.NP.Store  |       13014      2.06%      2.06% |       20293      3.21%      5.27% |      498850     78.99%     84.27% |       99347     15.73%    100.00%
system.ruby.L1Cache_Controller.NP.Store::total       631504                      
system.ruby.L1Cache_Controller.NP.Inv    |        4996     14.82%     14.82% |       11141     33.04%     47.86% |        6702     19.88%     67.74% |       10879     32.26%    100.00%
system.ruby.L1Cache_Controller.NP.Inv::total        33718                      
system.ruby.L1Cache_Controller.I.Load    |        3584     20.29%     20.29% |        6237     35.32%     55.61% |        2012     11.39%     67.00% |        5828     33.00%    100.00%
system.ruby.L1Cache_Controller.I.Load::total        17661                      
system.ruby.L1Cache_Controller.I.Ifetch  |        5757     28.87%     28.87% |        4507     22.60%     51.47% |        4694     23.54%     75.01% |        4983     24.99%    100.00%
system.ruby.L1Cache_Controller.I.Ifetch::total        19941                      
system.ruby.L1Cache_Controller.I.Store   |        1914     37.59%     37.59% |        1486     29.18%     66.77% |         294      5.77%     72.55% |        1398     27.45%    100.00%
system.ruby.L1Cache_Controller.I.Store::total         5092                      
system.ruby.L1Cache_Controller.I.L1_Replacement |        6622     28.25%     28.25% |        7040     30.03%     58.28% |        3765     16.06%     74.34% |        6016     25.66%    100.00%
system.ruby.L1Cache_Controller.I.L1_Replacement::total        23443                      
system.ruby.L1Cache_Controller.S.Load    |      153900     15.78%     15.78% |      207470     21.28%     37.06% |      424214     43.51%     80.57% |      189425     19.43%    100.00%
system.ruby.L1Cache_Controller.S.Load::total       975009                      
system.ruby.L1Cache_Controller.S.Ifetch  |     5440785      0.28%      0.28% |     7784482      0.39%      0.67% |  1863929587     94.30%     94.97% |    99492736      5.03%    100.00%
system.ruby.L1Cache_Controller.S.Ifetch::total   1976647590                      
system.ruby.L1Cache_Controller.S.Store   |        6040     42.39%     42.39% |        3044     21.37%     63.76% |        2465     17.30%     81.06% |        2698     18.94%    100.00%
system.ruby.L1Cache_Controller.S.Store::total        14247                      
system.ruby.L1Cache_Controller.S.Inv     |       13002     25.35%     25.35% |       14583     28.44%     53.79% |        9462     18.45%     72.24% |       14234     27.76%    100.00%
system.ruby.L1Cache_Controller.S.Inv::total        51281                      
system.ruby.L1Cache_Controller.S.L1_Replacement |       63418     23.57%     23.57% |       56154     20.87%     44.44% |       59146     21.98%     66.42% |       90369     33.58%    100.00%
system.ruby.L1Cache_Controller.S.L1_Replacement::total       269087                      
system.ruby.L1Cache_Controller.E.Load    |      202216      0.07%      0.07% |      226139      0.07%      0.14% |   294210430     97.47%     97.61% |     7220945      2.39%    100.00%
system.ruby.L1Cache_Controller.E.Load::total    301859730                      
system.ruby.L1Cache_Controller.E.Store   |        8884      1.31%      1.31% |       27916      4.10%      5.41% |      511198     75.15%     80.56% |      132274     19.44%    100.00%
system.ruby.L1Cache_Controller.E.Store::total       680272                      
system.ruby.L1Cache_Controller.E.Inv     |        1462     34.02%     34.02% |        1340     31.18%     65.21% |         407      9.47%     74.68% |        1088     25.32%    100.00%
system.ruby.L1Cache_Controller.E.Inv::total         4297                      
system.ruby.L1Cache_Controller.E.L1_Replacement |       16036      1.14%      1.14% |       21009      1.50%      2.64% |     1219248     86.99%     89.63% |      145292     10.37%    100.00%
system.ruby.L1Cache_Controller.E.L1_Replacement::total      1401585                      
system.ruby.L1Cache_Controller.E.Fwd_GETX |         192     12.45%     12.45% |         670     43.45%     55.90% |          16      1.04%     56.94% |         664     43.06%    100.00%
system.ruby.L1Cache_Controller.E.Fwd_GETX::total         1542                      
system.ruby.L1Cache_Controller.E.Fwd_GETS |        1271     20.37%     20.37% |        2794     44.77%     65.13% |         497      7.96%     73.10% |        1679     26.90%    100.00%
system.ruby.L1Cache_Controller.E.Fwd_GETS::total         6241                      
system.ruby.L1Cache_Controller.M.Load    |      678668      0.92%      0.92% |      899774      1.22%      2.14% |    57734534     78.29%     80.43% |    14434661     19.57%    100.00%
system.ruby.L1Cache_Controller.M.Load::total     73747637                      
system.ruby.L1Cache_Controller.M.Store   |      810453      1.53%      1.53% |     1090970      2.05%      3.58% |    38862910     73.15%     76.72% |    12366365     23.28%    100.00%
system.ruby.L1Cache_Controller.M.Store::total     53130698                      
system.ruby.L1Cache_Controller.M.Inv     |        2730     35.62%     35.62% |        2356     30.74%     66.36% |         462      6.03%     72.39% |        2116     27.61%    100.00%
system.ruby.L1Cache_Controller.M.Inv::total         7664                      
system.ruby.L1Cache_Controller.M.L1_Replacement |       21347      1.63%      1.63% |       47653      3.64%      5.27% |     1010028     77.08%     82.35% |      231275     17.65%    100.00%
system.ruby.L1Cache_Controller.M.L1_Replacement::total      1310303                      
system.ruby.L1Cache_Controller.M.Fwd_GETX |         394     27.29%     27.29% |         422     29.22%     56.51% |         285     19.74%     76.25% |         343     23.75%    100.00%
system.ruby.L1Cache_Controller.M.Fwd_GETX::total         1444                      
system.ruby.L1Cache_Controller.M.Fwd_GETS |        5204     44.20%     44.20% |        2452     20.83%     65.03% |        1989     16.89%     81.92% |        2128     18.08%    100.00%
system.ruby.L1Cache_Controller.M.Fwd_GETS::total        11773                      
system.ruby.L1Cache_Controller.IS.Data_Exclusive |       27841      1.33%      1.33% |       53784      2.57%      3.90% |     1731570     82.69%     86.59% |      280826     13.41%    100.00%
system.ruby.L1Cache_Controller.IS.Data_Exclusive::total      2094021                      
system.ruby.L1Cache_Controller.IS.DataS_fromL1 |        6280     34.86%     34.86% |        3671     20.38%     55.24% |        1831     10.16%     65.40% |        6233     34.60%    100.00%
system.ruby.L1Cache_Controller.IS.DataS_fromL1::total        18015                      
system.ruby.L1Cache_Controller.IS.Data_all_Acks |       69781     23.36%     23.36% |       64852     21.71%     45.08% |       66688     22.33%     67.40% |       97357     32.60%    100.00%
system.ruby.L1Cache_Controller.IS.Data_all_Acks::total       298678                      
system.ruby.L1Cache_Controller.IM.Data   |         161     10.64%     10.64% |         131      8.66%     19.30% |         380     25.12%     44.42% |         841     55.58%    100.00%
system.ruby.L1Cache_Controller.IM.Data::total         1513                      
system.ruby.L1Cache_Controller.IM.Data_all_Acks |       14767      2.33%      2.33% |       21648      3.41%      5.73% |      498764     78.54%     84.27% |       99904     15.73%    100.00%
system.ruby.L1Cache_Controller.IM.Data_all_Acks::total       635083                      
system.ruby.L1Cache_Controller.SM.Ack    |       13640     47.44%     47.44% |        4358     15.16%     62.59% |        5662     19.69%     82.28% |        5094     17.72%    100.00%
system.ruby.L1Cache_Controller.SM.Ack::total        28754                      
system.ruby.L1Cache_Controller.SM.Ack_all |        6201     39.35%     39.35% |        3175     20.15%     59.49% |        2845     18.05%     77.54% |        3539     22.46%    100.00%
system.ruby.L1Cache_Controller.SM.Ack_all::total        15760                      
system.ruby.L1Cache_Controller.M_I.Fwd_GETS |           1    100.00%    100.00% |           0      0.00%    100.00% |           0      0.00%    100.00% |           0      0.00%    100.00%
system.ruby.L1Cache_Controller.M_I.Fwd_GETS::total            1                      
system.ruby.L1Cache_Controller.M_I.WB_Ack |       37382      1.38%      1.38% |       68662      2.53%      3.91% |     2229276     82.20%     86.11% |      376567     13.89%    100.00%
system.ruby.L1Cache_Controller.M_I.WB_Ack::total      2711887                      
system.ruby.L1Cache_Controller.SINK_WB_ACK.WB_Ack |           1    100.00%    100.00% |           0      0.00%    100.00% |           0      0.00%    100.00% |           0      0.00%    100.00%
system.ruby.L1Cache_Controller.SINK_WB_ACK.WB_Ack::total            1                      
system.ruby.L2Cache_Controller.L1_GET_INSTR       247041      0.00%      0.00%
system.ruby.L2Cache_Controller.L1_GETS        2163728      0.00%      0.00%
system.ruby.L2Cache_Controller.L1_GETX         636598      0.00%      0.00%
system.ruby.L2Cache_Controller.L1_UPGRADE        14247      0.00%      0.00%
system.ruby.L2Cache_Controller.L1_PUTX        2711889      0.00%      0.00%
system.ruby.L2Cache_Controller.L2_Replacement       832313      0.00%      0.00%
system.ruby.L2Cache_Controller.L2_Replacement_clean       638190      0.00%      0.00%
system.ruby.L2Cache_Controller.Mem_Data       1473127      0.00%      0.00%
system.ruby.L2Cache_Controller.Mem_Ack        1470749      0.00%      0.00%
system.ruby.L2Cache_Controller.WB_Data          19437      0.00%      0.00%
system.ruby.L2Cache_Controller.WB_Data_clean         6242      0.00%      0.00%
system.ruby.L2Cache_Controller.Ack              28239      0.00%      0.00%
system.ruby.L2Cache_Controller.Ack_all          30790      0.00%      0.00%
system.ruby.L2Cache_Controller.Unblock          18015      0.00%      0.00%
system.ruby.L2Cache_Controller.Exclusive_Unblock      2744864      0.00%      0.00%
system.ruby.L2Cache_Controller.MEM_Inv            492      0.00%      0.00%
system.ruby.L2Cache_Controller.NP.L1_GET_INSTR        26677      0.00%      0.00%
system.ruby.L2Cache_Controller.NP.L1_GETS       937178      0.00%      0.00%
system.ruby.L2Cache_Controller.NP.L1_GETX       509272      0.00%      0.00%
system.ruby.L2Cache_Controller.SS.L1_GET_INSTR       220344      0.00%      0.00%
system.ruby.L2Cache_Controller.SS.L1_GETS        51597      0.00%      0.00%
system.ruby.L2Cache_Controller.SS.L1_GETX         1513      0.00%      0.00%
system.ruby.L2Cache_Controller.SS.L1_UPGRADE        14247      0.00%      0.00%
system.ruby.L2Cache_Controller.SS.L1_PUTX            1      0.00%      0.00%
system.ruby.L2Cache_Controller.SS.L2_Replacement          615      0.00%      0.00%
system.ruby.L2Cache_Controller.SS.L2_Replacement_clean        25878      0.00%      0.00%
system.ruby.L2Cache_Controller.M.L1_GET_INSTR           19      0.00%      0.00%
system.ruby.L2Cache_Controller.M.L1_GETS      1156863      0.00%      0.00%
system.ruby.L2Cache_Controller.M.L1_GETX       122825      0.00%      0.00%
system.ruby.L2Cache_Controller.M.L2_Replacement       830162      0.00%      0.00%
system.ruby.L2Cache_Controller.M.L2_Replacement_clean       601962      0.00%      0.00%
system.ruby.L2Cache_Controller.M.MEM_Inv          171      0.00%      0.00%
system.ruby.L2Cache_Controller.MT.L1_GETS        18015      0.00%      0.00%
system.ruby.L2Cache_Controller.MT.L1_GETX         2986      0.00%      0.00%
system.ruby.L2Cache_Controller.MT.L1_PUTX      2711887      0.00%      0.00%
system.ruby.L2Cache_Controller.MT.L2_Replacement         1536      0.00%      0.00%
system.ruby.L2Cache_Controller.MT.L2_Replacement_clean        10350      0.00%      0.00%
system.ruby.L2Cache_Controller.MT.MEM_Inv           75      0.00%      0.00%
system.ruby.L2Cache_Controller.M_I.Mem_Ack      1470749      0.00%      0.00%
system.ruby.L2Cache_Controller.M_I.MEM_Inv          171      0.00%      0.00%
system.ruby.L2Cache_Controller.MT_I.WB_Data         1335      0.00%      0.00%
system.ruby.L2Cache_Controller.MT_I.Ack_all          276      0.00%      0.00%
system.ruby.L2Cache_Controller.MT_I.MEM_Inv           75      0.00%      0.00%
system.ruby.L2Cache_Controller.MCT_I.WB_Data         6329      0.00%      0.00%
system.ruby.L2Cache_Controller.MCT_I.Ack_all         4021      0.00%      0.00%
system.ruby.L2Cache_Controller.I_I.Ack          27482      0.00%      0.00%
system.ruby.L2Cache_Controller.I_I.Ack_all        25878      0.00%      0.00%
system.ruby.L2Cache_Controller.S_I.Ack            757      0.00%      0.00%
system.ruby.L2Cache_Controller.S_I.Ack_all          615      0.00%      0.00%
system.ruby.L2Cache_Controller.ISS.L1_GETS           20      0.00%      0.00%
system.ruby.L2Cache_Controller.ISS.Mem_Data       937158      0.00%      0.00%
system.ruby.L2Cache_Controller.IS.L1_GET_INSTR            1      0.00%      0.00%
system.ruby.L2Cache_Controller.IS.Mem_Data        26697      0.00%      0.00%
system.ruby.L2Cache_Controller.IM.Mem_Data       509272      0.00%      0.00%
system.ruby.L2Cache_Controller.SS_MB.L1_GETS           35      0.00%      0.00%
system.ruby.L2Cache_Controller.SS_MB.Exclusive_Unblock        15760      0.00%      0.00%
system.ruby.L2Cache_Controller.MT_MB.L1_GETS           16      0.00%      0.00%
system.ruby.L2Cache_Controller.MT_MB.L1_GETX            2      0.00%      0.00%
system.ruby.L2Cache_Controller.MT_MB.Exclusive_Unblock      2729104      0.00%      0.00%
system.ruby.L2Cache_Controller.MT_IIB.L1_GETS            4      0.00%      0.00%
system.ruby.L2Cache_Controller.MT_IIB.L1_PUTX            1      0.00%      0.00%
system.ruby.L2Cache_Controller.MT_IIB.WB_Data        11758      0.00%      0.00%
system.ruby.L2Cache_Controller.MT_IIB.WB_Data_clean         6230      0.00%      0.00%
system.ruby.L2Cache_Controller.MT_IIB.Unblock           27      0.00%      0.00%
system.ruby.L2Cache_Controller.MT_IB.WB_Data           15      0.00%      0.00%
system.ruby.L2Cache_Controller.MT_IB.WB_Data_clean           12      0.00%      0.00%
system.ruby.L2Cache_Controller.MT_SB.Unblock        17988      0.00%      0.00%

---------- End Simulation Statistics   ----------
