
---------- Begin Simulation Statistics ----------
sim_seconds                                  2.979469                       # Number of seconds simulated
sim_ticks                                2979468791500                       # Number of ticks simulated
final_tick                               55884262230001                       # Number of ticks from beginning of simulation (restored from checkpoints and never reset)
sim_freq                                 1000000000000                       # Frequency of simulated ticks
host_inst_rate                                 129349                       # Simulator instruction rate (inst/s)
host_op_rate                                   216794                       # Simulator op (including micro ops) rate (op/s)
host_tick_rate                              251292229                       # Simulator tick rate (ticks/s)
host_mem_usage                                1838788                       # Number of bytes of host memory used
host_seconds                                 11856.59                       # Real time elapsed on the host
sim_insts                                  1533641571                       # Number of instructions simulated
sim_ops                                    2570437589                       # Number of ops (including micro ops) simulated
system.voltage_domain.voltage                       1                       # Voltage in Volts
system.clk_domain.clock                          1000                       # Clock period in ticks
system.mem_ctrls.bytes_read::ruby.dir_cntrl0      9304192                       # Number of bytes read from this memory
system.mem_ctrls.bytes_read::total            9304192                       # Number of bytes read from this memory
system.mem_ctrls.bytes_written::ruby.dir_cntrl0      6765056                       # Number of bytes written to this memory
system.mem_ctrls.bytes_written::total         6765056                       # Number of bytes written to this memory
system.mem_ctrls.num_reads::ruby.dir_cntrl0       145378                       # Number of read requests responded to by this memory
system.mem_ctrls.num_reads::total              145378                       # Number of read requests responded to by this memory
system.mem_ctrls.num_writes::ruby.dir_cntrl0       105704                       # Number of write requests responded to by this memory
system.mem_ctrls.num_writes::total             105704                       # Number of write requests responded to by this memory
system.mem_ctrls.bw_read::ruby.dir_cntrl0      3122769                       # Total read bandwidth from this memory (bytes/s)
system.mem_ctrls.bw_read::total               3122769                       # Total read bandwidth from this memory (bytes/s)
system.mem_ctrls.bw_write::ruby.dir_cntrl0      2270558                       # Write bandwidth from this memory (bytes/s)
system.mem_ctrls.bw_write::total              2270558                       # Write bandwidth from this memory (bytes/s)
system.mem_ctrls.bw_total::ruby.dir_cntrl0      5393327                       # Total bandwidth to/from this memory (bytes/s)
system.mem_ctrls.bw_total::total              5393327                       # Total bandwidth to/from this memory (bytes/s)
system.mem_ctrls.readReqs                      145378                       # Number of read requests accepted
system.mem_ctrls.writeReqs                     105704                       # Number of write requests accepted
system.mem_ctrls.readBursts                    145378                       # Number of DRAM read bursts, including those serviced by the write queue
system.mem_ctrls.writeBursts                   105704                       # Number of DRAM write bursts, including those merged in the write queue
system.mem_ctrls.bytesReadDRAM                9302400                       # Total number of bytes read from DRAM
system.mem_ctrls.bytesReadWrQ                    1792                       # Total number of bytes read from write queue
system.mem_ctrls.bytesWritten                 6763712                       # Total number of bytes written to DRAM
system.mem_ctrls.bytesReadSys                 9304192                       # Total read bytes from the system interface side
system.mem_ctrls.bytesWrittenSys              6765056                       # Total written bytes from the system interface side
system.mem_ctrls.servicedByWrQ                     28                       # Number of DRAM read bursts serviced by the write queue
system.mem_ctrls.mergedWrBursts                     1                       # Number of DRAM write bursts merged with an existing one
system.mem_ctrls.neitherReadNorWriteReqs            0                       # Number of requests that are neither read nor write
system.mem_ctrls.perBankRdBursts::0              8846                       # Per bank write bursts
system.mem_ctrls.perBankRdBursts::1              9173                       # Per bank write bursts
system.mem_ctrls.perBankRdBursts::2              9154                       # Per bank write bursts
system.mem_ctrls.perBankRdBursts::3              8887                       # Per bank write bursts
system.mem_ctrls.perBankRdBursts::4              9933                       # Per bank write bursts
system.mem_ctrls.perBankRdBursts::5             10196                       # Per bank write bursts
system.mem_ctrls.perBankRdBursts::6              9308                       # Per bank write bursts
system.mem_ctrls.perBankRdBursts::7              9930                       # Per bank write bursts
system.mem_ctrls.perBankRdBursts::8              9016                       # Per bank write bursts
system.mem_ctrls.perBankRdBursts::9              9421                       # Per bank write bursts
system.mem_ctrls.perBankRdBursts::10             8698                       # Per bank write bursts
system.mem_ctrls.perBankRdBursts::11             8545                       # Per bank write bursts
system.mem_ctrls.perBankRdBursts::12             8307                       # Per bank write bursts
system.mem_ctrls.perBankRdBursts::13             8168                       # Per bank write bursts
system.mem_ctrls.perBankRdBursts::14             9056                       # Per bank write bursts
system.mem_ctrls.perBankRdBursts::15             8712                       # Per bank write bursts
system.mem_ctrls.perBankWrBursts::0              6644                       # Per bank write bursts
system.mem_ctrls.perBankWrBursts::1              6956                       # Per bank write bursts
system.mem_ctrls.perBankWrBursts::2              6837                       # Per bank write bursts
system.mem_ctrls.perBankWrBursts::3              6736                       # Per bank write bursts
system.mem_ctrls.perBankWrBursts::4              6919                       # Per bank write bursts
system.mem_ctrls.perBankWrBursts::5              7378                       # Per bank write bursts
system.mem_ctrls.perBankWrBursts::6              6377                       # Per bank write bursts
system.mem_ctrls.perBankWrBursts::7              6895                       # Per bank write bursts
system.mem_ctrls.perBankWrBursts::8              6236                       # Per bank write bursts
system.mem_ctrls.perBankWrBursts::9              6186                       # Per bank write bursts
system.mem_ctrls.perBankWrBursts::10             6187                       # Per bank write bursts
system.mem_ctrls.perBankWrBursts::11             6398                       # Per bank write bursts
system.mem_ctrls.perBankWrBursts::12             6374                       # Per bank write bursts
system.mem_ctrls.perBankWrBursts::13             6215                       # Per bank write bursts
system.mem_ctrls.perBankWrBursts::14             6717                       # Per bank write bursts
system.mem_ctrls.perBankWrBursts::15             6628                       # Per bank write bursts
system.mem_ctrls.numRdRetry                         0                       # Number of times read queue was full causing retry
system.mem_ctrls.numWrRetry                         0                       # Number of times write queue was full causing retry
system.mem_ctrls.totGap                  2979468718000                       # Total gap between requests
system.mem_ctrls.readPktSize::0                     0                       # Read request sizes (log2)
system.mem_ctrls.readPktSize::1                     0                       # Read request sizes (log2)
system.mem_ctrls.readPktSize::2                     0                       # Read request sizes (log2)
system.mem_ctrls.readPktSize::3                     0                       # Read request sizes (log2)
system.mem_ctrls.readPktSize::4                     0                       # Read request sizes (log2)
system.mem_ctrls.readPktSize::5                     0                       # Read request sizes (log2)
system.mem_ctrls.readPktSize::6                145378                       # Read request sizes (log2)
system.mem_ctrls.writePktSize::0                    0                       # Write request sizes (log2)
system.mem_ctrls.writePktSize::1                    0                       # Write request sizes (log2)
system.mem_ctrls.writePktSize::2                    0                       # Write request sizes (log2)
system.mem_ctrls.writePktSize::3                    0                       # Write request sizes (log2)
system.mem_ctrls.writePktSize::4                    0                       # Write request sizes (log2)
system.mem_ctrls.writePktSize::5                    0                       # Write request sizes (log2)
system.mem_ctrls.writePktSize::6               105704                       # Write request sizes (log2)
system.mem_ctrls.rdQLenPdf::0                  144645                       # What read queue length does an incoming req see
system.mem_ctrls.rdQLenPdf::1                     695                       # What read queue length does an incoming req see
system.mem_ctrls.rdQLenPdf::2                      10                       # What read queue length does an incoming req see
system.mem_ctrls.rdQLenPdf::3                       0                       # What read queue length does an incoming req see
system.mem_ctrls.rdQLenPdf::4                       0                       # What read queue length does an incoming req see
system.mem_ctrls.rdQLenPdf::5                       0                       # What read queue length does an incoming req see
system.mem_ctrls.rdQLenPdf::6                       0                       # What read queue length does an incoming req see
system.mem_ctrls.rdQLenPdf::7                       0                       # What read queue length does an incoming req see
system.mem_ctrls.rdQLenPdf::8                       0                       # What read queue length does an incoming req see
system.mem_ctrls.rdQLenPdf::9                       0                       # What read queue length does an incoming req see
system.mem_ctrls.rdQLenPdf::10                      0                       # What read queue length does an incoming req see
system.mem_ctrls.rdQLenPdf::11                      0                       # What read queue length does an incoming req see
system.mem_ctrls.rdQLenPdf::12                      0                       # What read queue length does an incoming req see
system.mem_ctrls.rdQLenPdf::13                      0                       # What read queue length does an incoming req see
system.mem_ctrls.rdQLenPdf::14                      0                       # What read queue length does an incoming req see
system.mem_ctrls.rdQLenPdf::15                      0                       # What read queue length does an incoming req see
system.mem_ctrls.rdQLenPdf::16                      0                       # What read queue length does an incoming req see
system.mem_ctrls.rdQLenPdf::17                      0                       # What read queue length does an incoming req see
system.mem_ctrls.rdQLenPdf::18                      0                       # What read queue length does an incoming req see
system.mem_ctrls.rdQLenPdf::19                      0                       # What read queue length does an incoming req see
system.mem_ctrls.rdQLenPdf::20                      0                       # What read queue length does an incoming req see
system.mem_ctrls.rdQLenPdf::21                      0                       # What read queue length does an incoming req see
system.mem_ctrls.rdQLenPdf::22                      0                       # What read queue length does an incoming req see
system.mem_ctrls.rdQLenPdf::23                      0                       # What read queue length does an incoming req see
system.mem_ctrls.rdQLenPdf::24                      0                       # What read queue length does an incoming req see
system.mem_ctrls.rdQLenPdf::25                      0                       # What read queue length does an incoming req see
system.mem_ctrls.rdQLenPdf::26                      0                       # What read queue length does an incoming req see
system.mem_ctrls.rdQLenPdf::27                      0                       # What read queue length does an incoming req see
system.mem_ctrls.rdQLenPdf::28                      0                       # What read queue length does an incoming req see
system.mem_ctrls.rdQLenPdf::29                      0                       # What read queue length does an incoming req see
system.mem_ctrls.rdQLenPdf::30                      0                       # What read queue length does an incoming req see
system.mem_ctrls.rdQLenPdf::31                      0                       # What read queue length does an incoming req see
system.mem_ctrls.wrQLenPdf::0                       0                       # What write queue length does an incoming req see
system.mem_ctrls.wrQLenPdf::1                       1                       # What write queue length does an incoming req see
system.mem_ctrls.wrQLenPdf::2                       1                       # What write queue length does an incoming req see
system.mem_ctrls.wrQLenPdf::3                       1                       # What write queue length does an incoming req see
system.mem_ctrls.wrQLenPdf::4                       1                       # What write queue length does an incoming req see
system.mem_ctrls.wrQLenPdf::5                       1                       # What write queue length does an incoming req see
system.mem_ctrls.wrQLenPdf::6                       1                       # What write queue length does an incoming req see
system.mem_ctrls.wrQLenPdf::7                       1                       # What write queue length does an incoming req see
system.mem_ctrls.wrQLenPdf::8                       1                       # What write queue length does an incoming req see
system.mem_ctrls.wrQLenPdf::9                       1                       # What write queue length does an incoming req see
system.mem_ctrls.wrQLenPdf::10                      1                       # What write queue length does an incoming req see
system.mem_ctrls.wrQLenPdf::11                      1                       # What write queue length does an incoming req see
system.mem_ctrls.wrQLenPdf::12                      1                       # What write queue length does an incoming req see
system.mem_ctrls.wrQLenPdf::13                      1                       # What write queue length does an incoming req see
system.mem_ctrls.wrQLenPdf::14                      1                       # What write queue length does an incoming req see
system.mem_ctrls.wrQLenPdf::15                    687                       # What write queue length does an incoming req see
system.mem_ctrls.wrQLenPdf::16                    718                       # What write queue length does an incoming req see
system.mem_ctrls.wrQLenPdf::17                   6492                       # What write queue length does an incoming req see
system.mem_ctrls.wrQLenPdf::18                   6528                       # What write queue length does an incoming req see
system.mem_ctrls.wrQLenPdf::19                   6531                       # What write queue length does an incoming req see
system.mem_ctrls.wrQLenPdf::20                   6611                       # What write queue length does an incoming req see
system.mem_ctrls.wrQLenPdf::21                   6527                       # What write queue length does an incoming req see
system.mem_ctrls.wrQLenPdf::22                   6531                       # What write queue length does an incoming req see
system.mem_ctrls.wrQLenPdf::23                   6523                       # What write queue length does an incoming req see
system.mem_ctrls.wrQLenPdf::24                   6501                       # What write queue length does an incoming req see
system.mem_ctrls.wrQLenPdf::25                   6518                       # What write queue length does an incoming req see
system.mem_ctrls.wrQLenPdf::26                   6531                       # What write queue length does an incoming req see
system.mem_ctrls.wrQLenPdf::27                   6503                       # What write queue length does an incoming req see
system.mem_ctrls.wrQLenPdf::28                   6494                       # What write queue length does an incoming req see
system.mem_ctrls.wrQLenPdf::29                   6499                       # What write queue length does an incoming req see
system.mem_ctrls.wrQLenPdf::30                   6498                       # What write queue length does an incoming req see
system.mem_ctrls.wrQLenPdf::31                   6495                       # What write queue length does an incoming req see
system.mem_ctrls.wrQLenPdf::32                   6490                       # What write queue length does an incoming req see
system.mem_ctrls.wrQLenPdf::33                      4                       # What write queue length does an incoming req see
system.mem_ctrls.wrQLenPdf::34                      3                       # What write queue length does an incoming req see
system.mem_ctrls.wrQLenPdf::35                      3                       # What write queue length does an incoming req see
system.mem_ctrls.wrQLenPdf::36                      1                       # What write queue length does an incoming req see
system.mem_ctrls.wrQLenPdf::37                      1                       # What write queue length does an incoming req see
system.mem_ctrls.wrQLenPdf::38                      0                       # What write queue length does an incoming req see
system.mem_ctrls.wrQLenPdf::39                      0                       # What write queue length does an incoming req see
system.mem_ctrls.wrQLenPdf::40                      0                       # What write queue length does an incoming req see
system.mem_ctrls.wrQLenPdf::41                      0                       # What write queue length does an incoming req see
system.mem_ctrls.wrQLenPdf::42                      0                       # What write queue length does an incoming req see
system.mem_ctrls.wrQLenPdf::43                      0                       # What write queue length does an incoming req see
system.mem_ctrls.wrQLenPdf::44                      0                       # What write queue length does an incoming req see
system.mem_ctrls.wrQLenPdf::45                      0                       # What write queue length does an incoming req see
system.mem_ctrls.wrQLenPdf::46                      0                       # What write queue length does an incoming req see
system.mem_ctrls.wrQLenPdf::47                      0                       # What write queue length does an incoming req see
system.mem_ctrls.wrQLenPdf::48                      0                       # What write queue length does an incoming req see
system.mem_ctrls.wrQLenPdf::49                      0                       # What write queue length does an incoming req see
system.mem_ctrls.wrQLenPdf::50                      0                       # What write queue length does an incoming req see
system.mem_ctrls.wrQLenPdf::51                      0                       # What write queue length does an incoming req see
system.mem_ctrls.wrQLenPdf::52                      0                       # What write queue length does an incoming req see
system.mem_ctrls.wrQLenPdf::53                      0                       # What write queue length does an incoming req see
system.mem_ctrls.wrQLenPdf::54                      0                       # What write queue length does an incoming req see
system.mem_ctrls.wrQLenPdf::55                      0                       # What write queue length does an incoming req see
system.mem_ctrls.wrQLenPdf::56                      0                       # What write queue length does an incoming req see
system.mem_ctrls.wrQLenPdf::57                      0                       # What write queue length does an incoming req see
system.mem_ctrls.wrQLenPdf::58                      0                       # What write queue length does an incoming req see
system.mem_ctrls.wrQLenPdf::59                      0                       # What write queue length does an incoming req see
system.mem_ctrls.wrQLenPdf::60                      0                       # What write queue length does an incoming req see
system.mem_ctrls.wrQLenPdf::61                      0                       # What write queue length does an incoming req see
system.mem_ctrls.wrQLenPdf::62                      0                       # What write queue length does an incoming req see
system.mem_ctrls.wrQLenPdf::63                      0                       # What write queue length does an incoming req see
system.mem_ctrls.bytesPerActivate::samples        35408                       # Bytes accessed per row activation
system.mem_ctrls.bytesPerActivate::mean    453.747854                       # Bytes accessed per row activation
system.mem_ctrls.bytesPerActivate::gmean   239.036425                       # Bytes accessed per row activation
system.mem_ctrls.bytesPerActivate::stdev   431.651064                       # Bytes accessed per row activation
system.mem_ctrls.bytesPerActivate::0-127        12943     36.55%     36.55% # Bytes accessed per row activation
system.mem_ctrls.bytesPerActivate::128-255         5937     16.77%     53.32% # Bytes accessed per row activation
system.mem_ctrls.bytesPerActivate::256-383         1885      5.32%     58.64% # Bytes accessed per row activation
system.mem_ctrls.bytesPerActivate::384-511          926      2.62%     61.26% # Bytes accessed per row activation
system.mem_ctrls.bytesPerActivate::512-639          602      1.70%     62.96% # Bytes accessed per row activation
system.mem_ctrls.bytesPerActivate::640-767          470      1.33%     64.29% # Bytes accessed per row activation
system.mem_ctrls.bytesPerActivate::768-895          407      1.15%     65.44% # Bytes accessed per row activation
system.mem_ctrls.bytesPerActivate::896-1023          503      1.42%     66.86% # Bytes accessed per row activation
system.mem_ctrls.bytesPerActivate::1024-1151        11735     33.14%    100.00% # Bytes accessed per row activation
system.mem_ctrls.bytesPerActivate::total        35408                       # Bytes accessed per row activation
system.mem_ctrls.rdPerTurnAround::samples         6489                       # Reads before turning the bus around for writes
system.mem_ctrls.rdPerTurnAround::mean      24.991832                       # Reads before turning the bus around for writes
system.mem_ctrls.rdPerTurnAround::stdev    244.951613                       # Reads before turning the bus around for writes
system.mem_ctrls.rdPerTurnAround::0-1023         6481     99.88%     99.88% # Reads before turning the bus around for writes
system.mem_ctrls.rdPerTurnAround::1024-2047            6      0.09%     99.97% # Reads before turning the bus around for writes
system.mem_ctrls.rdPerTurnAround::2048-3071            1      0.02%     99.98% # Reads before turning the bus around for writes
system.mem_ctrls.rdPerTurnAround::18432-19455            1      0.02%    100.00% # Reads before turning the bus around for writes
system.mem_ctrls.rdPerTurnAround::total          6489                       # Reads before turning the bus around for writes
system.mem_ctrls.wrPerTurnAround::samples         6489                       # Writes before turning the bus around for reads
system.mem_ctrls.wrPerTurnAround::mean      16.286485                       # Writes before turning the bus around for reads
system.mem_ctrls.wrPerTurnAround::gmean     16.262193                       # Writes before turning the bus around for reads
system.mem_ctrls.wrPerTurnAround::stdev      0.958480                       # Writes before turning the bus around for reads
system.mem_ctrls.wrPerTurnAround::16             5798     89.35%     89.35% # Writes before turning the bus around for reads
system.mem_ctrls.wrPerTurnAround::17                2      0.03%     89.38% # Writes before turning the bus around for reads
system.mem_ctrls.wrPerTurnAround::18              524      8.08%     97.46% # Writes before turning the bus around for reads
system.mem_ctrls.wrPerTurnAround::19               40      0.62%     98.07% # Writes before turning the bus around for reads
system.mem_ctrls.wrPerTurnAround::20               25      0.39%     98.46% # Writes before turning the bus around for reads
system.mem_ctrls.wrPerTurnAround::21               55      0.85%     99.31% # Writes before turning the bus around for reads
system.mem_ctrls.wrPerTurnAround::22               19      0.29%     99.60% # Writes before turning the bus around for reads
system.mem_ctrls.wrPerTurnAround::23               18      0.28%     99.88% # Writes before turning the bus around for reads
system.mem_ctrls.wrPerTurnAround::24                3      0.05%     99.92% # Writes before turning the bus around for reads
system.mem_ctrls.wrPerTurnAround::25                1      0.02%     99.94% # Writes before turning the bus around for reads
system.mem_ctrls.wrPerTurnAround::26                3      0.05%     99.98% # Writes before turning the bus around for reads
system.mem_ctrls.wrPerTurnAround::27                1      0.02%    100.00% # Writes before turning the bus around for reads
system.mem_ctrls.wrPerTurnAround::total          6489                       # Writes before turning the bus around for reads
system.mem_ctrls.totQLat                   1494026245                       # Total ticks spent queuing
system.mem_ctrls.totMemAccLat              4219338745                       # Total ticks spent from burst creation until serviced by the DRAM
system.mem_ctrls.totBusLat                  726750000                       # Total ticks spent in databus transfers
system.mem_ctrls.avgQLat                     10278.82                       # Average queueing delay per DRAM burst
system.mem_ctrls.avgBusLat                    5000.00                       # Average bus latency per DRAM burst
system.mem_ctrls.avgMemAccLat                29028.82                       # Average memory access latency per DRAM burst
system.mem_ctrls.avgRdBW                         3.12                       # Average DRAM read bandwidth in MiByte/s
system.mem_ctrls.avgWrBW                         2.27                       # Average achieved write bandwidth in MiByte/s
system.mem_ctrls.avgRdBWSys                      3.12                       # Average system read bandwidth in MiByte/s
system.mem_ctrls.avgWrBWSys                      2.27                       # Average system write bandwidth in MiByte/s
system.mem_ctrls.peakBW                      12800.00                       # Theoretical peak bandwidth in MiByte/s
system.mem_ctrls.busUtil                         0.04                       # Data bus utilization in percentage
system.mem_ctrls.busUtilRead                     0.02                       # Data bus utilization in percentage for reads
system.mem_ctrls.busUtilWrite                    0.02                       # Data bus utilization in percentage for writes
system.mem_ctrls.avgRdQLen                       1.00                       # Average read queue length when enqueuing
system.mem_ctrls.avgWrQLen                      23.71                       # Average write queue length when enqueuing
system.mem_ctrls.readRowHits                   119040                       # Number of row buffer hits during reads
system.mem_ctrls.writeRowHits                   96585                       # Number of row buffer hits during writes
system.mem_ctrls.readRowHitRate                 81.90                       # Row buffer hit rate for reads
system.mem_ctrls.writeRowHitRate                91.37                       # Row buffer hit rate for writes
system.mem_ctrls.avgGap                   11866516.59                       # Average gap between requests
system.mem_ctrls.pageHitRate                    85.89                       # Row buffer hit rate, read and write combined
system.mem_ctrls_0.actEnergy                154813680                       # Energy for activate commands per rank (pJ)
system.mem_ctrls_0.preEnergy                 84471750                       # Energy for precharge commands per rank (pJ)
system.mem_ctrls_0.readEnergy               655738200                       # Energy for read commands per rank (pJ)
system.mem_ctrls_0.writeEnergy              354728160                       # Energy for write commands per rank (pJ)
system.mem_ctrls_0.refreshEnergy         194852729760                       # Energy for refresh commands per rank (pJ)
system.mem_ctrls_0.actBackEnergy          87403485645                       # Energy for active background per rank (pJ)
system.mem_ctrls_0.preBackEnergy         1713292757250                       # Energy for precharge background per rank (pJ)
system.mem_ctrls_0.totalEnergy           1996798724445                       # Total energy per rank (pJ)
system.mem_ctrls_0.averagePower            669.332037                       # Core power per rank (mW)
system.mem_ctrls_0.memoryStateTime::IDLE 2848399215250                       # Time in different power states
system.mem_ctrls_0.memoryStateTime::REF   99491080000                       # Time in different power states
system.mem_ctrls_0.memoryStateTime::PRE_PDN            0                       # Time in different power states
system.mem_ctrls_0.memoryStateTime::ACT   31578721750                       # Time in different power states
system.mem_ctrls_0.memoryStateTime::ACT_PDN            0                       # Time in different power states
system.mem_ctrls_1.actEnergy                143314920                       # Energy for activate commands per rank (pJ)
system.mem_ctrls_1.preEnergy                 78197625                       # Energy for precharge commands per rank (pJ)
system.mem_ctrls_1.readEnergy               609421800                       # Energy for read commands per rank (pJ)
system.mem_ctrls_1.writeEnergy              330097680                       # Energy for write commands per rank (pJ)
system.mem_ctrls_1.refreshEnergy         194852729760                       # Energy for refresh commands per rank (pJ)
system.mem_ctrls_1.actBackEnergy          85359453390                       # Energy for active background per rank (pJ)
system.mem_ctrls_1.preBackEnergy         1715085768000                       # Energy for precharge background per rank (pJ)
system.mem_ctrls_1.totalEnergy           1996458983175                       # Total energy per rank (pJ)
system.mem_ctrls_1.averagePower            669.218155                       # Core power per rank (mW)
system.mem_ctrls_1.memoryStateTime::IDLE 2851665232750                       # Time in different power states
system.mem_ctrls_1.memoryStateTime::REF   99491080000                       # Time in different power states
system.mem_ctrls_1.memoryStateTime::PRE_PDN            0                       # Time in different power states
system.mem_ctrls_1.memoryStateTime::ACT   28314539750                       # Time in different power states
system.mem_ctrls_1.memoryStateTime::ACT_PDN            0                       # Time in different power states
system.cpu_voltage_domain.voltage                   1                       # Voltage in Volts
system.cpu_clk_domain.clock                       500                       # Clock period in ticks
system.cpu0.apic_clk_domain.clock                8000                       # Clock period in ticks
system.cpu0.numCycles                      5958937593                       # number of cpu cycles simulated
system.cpu0.numWorkItemsStarted                     0                       # number of work items this cpu started
system.cpu0.numWorkItemsCompleted                   0                       # number of work items this cpu completed
system.cpu0.kern.inst.arm                           0                       # number of arm instructions executed
system.cpu0.kern.inst.quiesce                       0                       # number of quiesce instructions executed
system.cpu0.committedInsts                 1476328077                       # Number of instructions committed
system.cpu0.committedOps                   2467016172                       # Number of ops (including micro ops) committed
system.cpu0.num_int_alu_accesses           1881895840                       # Number of integer alu accesses
system.cpu0.num_fp_alu_accesses             945947405                       # Number of float alu accesses
system.cpu0.num_func_calls                   34364153                       # number of times a function call or return occured
system.cpu0.num_conditional_control_insts    165775879                       # number of instructions that are conditional controls
system.cpu0.num_int_insts                  1881895840                       # number of integer instructions
system.cpu0.num_fp_insts                    945947405                       # number of float instructions
system.cpu0.num_int_register_reads         3990654184                       # number of times the integer registers were read
system.cpu0.num_int_register_writes        1279571623                       # number of times the integer registers were written
system.cpu0.num_fp_register_reads          1502755339                       # number of times the floating registers were read
system.cpu0.num_fp_register_writes          775539812                       # number of times the floating registers were written
system.cpu0.num_cc_register_reads          1393932848                       # number of times the CC registers were read
system.cpu0.num_cc_register_writes          529047222                       # number of times the CC registers were written
system.cpu0.num_mem_refs                    626079532                       # number of memory refs
system.cpu0.num_load_insts                  465652957                       # Number of load instructions
system.cpu0.num_store_insts                 160426575                       # Number of store instructions
system.cpu0.num_idle_cycles              172055191.290677                       # Number of idle cycles
system.cpu0.num_busy_cycles              5786882401.709323                       # Number of busy cycles
system.cpu0.not_idle_fraction                0.971127                       # Percentage of non-idle cycles
system.cpu0.idle_fraction                    0.028873                       # Percentage of idle cycles
system.cpu0.Branches                        223607382                       # Number of branches fetched
system.cpu0.op_class::No_OpClass              3267762      0.13%      0.13% # Class of executed instruction
system.cpu0.op_class::IntAlu               1423182115     57.69%     57.82% # Class of executed instruction
system.cpu0.op_class::IntMult                 4499305      0.18%     58.00% # Class of executed instruction
system.cpu0.op_class::IntDiv                 18800545      0.76%     58.77% # Class of executed instruction
system.cpu0.op_class::FloatAdd              390176768     15.82%     74.58% # Class of executed instruction
system.cpu0.op_class::FloatCmp                      0      0.00%     74.58% # Class of executed instruction
system.cpu0.op_class::FloatCvt                      0      0.00%     74.58% # Class of executed instruction
system.cpu0.op_class::FloatMult                     0      0.00%     74.58% # Class of executed instruction
system.cpu0.op_class::FloatDiv                1010280      0.04%     74.62% # Class of executed instruction
system.cpu0.op_class::FloatSqrt                     0      0.00%     74.62% # Class of executed instruction
system.cpu0.op_class::SimdAdd                       0      0.00%     74.62% # Class of executed instruction
system.cpu0.op_class::SimdAddAcc                    0      0.00%     74.62% # Class of executed instruction
system.cpu0.op_class::SimdAlu                       0      0.00%     74.62% # Class of executed instruction
system.cpu0.op_class::SimdCmp                       0      0.00%     74.62% # Class of executed instruction
system.cpu0.op_class::SimdCvt                       0      0.00%     74.62% # Class of executed instruction
system.cpu0.op_class::SimdMisc                      0      0.00%     74.62% # Class of executed instruction
system.cpu0.op_class::SimdMult                      0      0.00%     74.62% # Class of executed instruction
system.cpu0.op_class::SimdMultAcc                   0      0.00%     74.62% # Class of executed instruction
system.cpu0.op_class::SimdShift                     0      0.00%     74.62% # Class of executed instruction
system.cpu0.op_class::SimdShiftAcc                  0      0.00%     74.62% # Class of executed instruction
system.cpu0.op_class::SimdSqrt                      0      0.00%     74.62% # Class of executed instruction
system.cpu0.op_class::SimdFloatAdd                  0      0.00%     74.62% # Class of executed instruction
system.cpu0.op_class::SimdFloatAlu                  0      0.00%     74.62% # Class of executed instruction
system.cpu0.op_class::SimdFloatCmp                  0      0.00%     74.62% # Class of executed instruction
system.cpu0.op_class::SimdFloatCvt                  0      0.00%     74.62% # Class of executed instruction
system.cpu0.op_class::SimdFloatDiv                  0      0.00%     74.62% # Class of executed instruction
system.cpu0.op_class::SimdFloatMisc                 0      0.00%     74.62% # Class of executed instruction
system.cpu0.op_class::SimdFloatMult                 0      0.00%     74.62% # Class of executed instruction
system.cpu0.op_class::SimdFloatMultAcc              0      0.00%     74.62% # Class of executed instruction
system.cpu0.op_class::SimdFloatSqrt                 0      0.00%     74.62% # Class of executed instruction
system.cpu0.op_class::MemRead               465652957     18.88%     93.50% # Class of executed instruction
system.cpu0.op_class::MemWrite              160426575      6.50%    100.00% # Class of executed instruction
system.cpu0.op_class::IprAccess                     0      0.00%    100.00% # Class of executed instruction
system.cpu0.op_class::InstPrefetch                  0      0.00%    100.00% # Class of executed instruction
system.cpu0.op_class::total                2467016307                       # Class of executed instruction
system.cpu1.apic_clk_domain.clock                8000                       # Clock period in ticks
system.cpu1.numCycles                      5959462064                       # number of cpu cycles simulated
system.cpu1.numWorkItemsStarted                     0                       # number of work items this cpu started
system.cpu1.numWorkItemsCompleted                   0                       # number of work items this cpu completed
system.cpu1.kern.inst.arm                           0                       # number of arm instructions executed
system.cpu1.kern.inst.quiesce                       0                       # number of quiesce instructions executed
system.cpu1.committedInsts                    4270552                       # Number of instructions committed
system.cpu1.committedOps                      8809356                       # Number of ops (including micro ops) committed
system.cpu1.num_int_alu_accesses              8649887                       # Number of integer alu accesses
system.cpu1.num_fp_alu_accesses                     0                       # Number of float alu accesses
system.cpu1.num_func_calls                     214541                       # number of times a function call or return occured
system.cpu1.num_conditional_control_insts       737209                       # number of instructions that are conditional controls
system.cpu1.num_int_insts                     8649887                       # number of integer instructions
system.cpu1.num_fp_insts                            0                       # number of float instructions
system.cpu1.num_int_register_reads           17028274                       # number of times the integer registers were read
system.cpu1.num_int_register_writes           7126103                       # number of times the integer registers were written
system.cpu1.num_fp_register_reads                   0                       # number of times the floating registers were read
system.cpu1.num_fp_register_writes                  0                       # number of times the floating registers were written
system.cpu1.num_cc_register_reads             5531070                       # number of times the CC registers were read
system.cpu1.num_cc_register_writes            2911665                       # number of times the CC registers were written
system.cpu1.num_mem_refs                      1835925                       # number of memory refs
system.cpu1.num_load_insts                    1176878                       # Number of load instructions
system.cpu1.num_store_insts                    659047                       # Number of store instructions
system.cpu1.num_idle_cycles              5942590611.215313                       # Number of idle cycles
system.cpu1.num_busy_cycles              16871452.784687                       # Number of busy cycles
system.cpu1.not_idle_fraction                0.002831                       # Percentage of non-idle cycles
system.cpu1.idle_fraction                    0.997169                       # Percentage of idle cycles
system.cpu1.Branches                          1020005                       # Number of branches fetched
system.cpu1.op_class::No_OpClass               106803      1.21%      1.21% # Class of executed instruction
system.cpu1.op_class::IntAlu                  6821235     77.43%     78.64% # Class of executed instruction
system.cpu1.op_class::IntMult                   15989      0.18%     78.83% # Class of executed instruction
system.cpu1.op_class::IntDiv                    29407      0.33%     79.16% # Class of executed instruction
system.cpu1.op_class::FloatAdd                      0      0.00%     79.16% # Class of executed instruction
system.cpu1.op_class::FloatCmp                      0      0.00%     79.16% # Class of executed instruction
system.cpu1.op_class::FloatCvt                      0      0.00%     79.16% # Class of executed instruction
system.cpu1.op_class::FloatMult                     0      0.00%     79.16% # Class of executed instruction
system.cpu1.op_class::FloatDiv                      0      0.00%     79.16% # Class of executed instruction
system.cpu1.op_class::FloatSqrt                     0      0.00%     79.16% # Class of executed instruction
system.cpu1.op_class::SimdAdd                       0      0.00%     79.16% # Class of executed instruction
system.cpu1.op_class::SimdAddAcc                    0      0.00%     79.16% # Class of executed instruction
system.cpu1.op_class::SimdAlu                       0      0.00%     79.16% # Class of executed instruction
system.cpu1.op_class::SimdCmp                       0      0.00%     79.16% # Class of executed instruction
system.cpu1.op_class::SimdCvt                       0      0.00%     79.16% # Class of executed instruction
system.cpu1.op_class::SimdMisc                      0      0.00%     79.16% # Class of executed instruction
system.cpu1.op_class::SimdMult                      0      0.00%     79.16% # Class of executed instruction
system.cpu1.op_class::SimdMultAcc                   0      0.00%     79.16% # Class of executed instruction
system.cpu1.op_class::SimdShift                     0      0.00%     79.16% # Class of executed instruction
system.cpu1.op_class::SimdShiftAcc                  0      0.00%     79.16% # Class of executed instruction
system.cpu1.op_class::SimdSqrt                      0      0.00%     79.16% # Class of executed instruction
system.cpu1.op_class::SimdFloatAdd                  0      0.00%     79.16% # Class of executed instruction
system.cpu1.op_class::SimdFloatAlu                  0      0.00%     79.16% # Class of executed instruction
system.cpu1.op_class::SimdFloatCmp                  0      0.00%     79.16% # Class of executed instruction
system.cpu1.op_class::SimdFloatCvt                  0      0.00%     79.16% # Class of executed instruction
system.cpu1.op_class::SimdFloatDiv                  0      0.00%     79.16% # Class of executed instruction
system.cpu1.op_class::SimdFloatMisc                 0      0.00%     79.16% # Class of executed instruction
system.cpu1.op_class::SimdFloatMult                 0      0.00%     79.16% # Class of executed instruction
system.cpu1.op_class::SimdFloatMultAcc              0      0.00%     79.16% # Class of executed instruction
system.cpu1.op_class::SimdFloatSqrt                 0      0.00%     79.16% # Class of executed instruction
system.cpu1.op_class::MemRead                 1176878     13.36%     92.52% # Class of executed instruction
system.cpu1.op_class::MemWrite                 659047      7.48%    100.00% # Class of executed instruction
system.cpu1.op_class::IprAccess                     0      0.00%    100.00% # Class of executed instruction
system.cpu1.op_class::InstPrefetch                  0      0.00%    100.00% # Class of executed instruction
system.cpu1.op_class::total                   8809359                       # Class of executed instruction
system.cpu2.apic_clk_domain.clock                8000                       # Clock period in ticks
system.cpu2.numCycles                      5958979082                       # number of cpu cycles simulated
system.cpu2.numWorkItemsStarted                     0                       # number of work items this cpu started
system.cpu2.numWorkItemsCompleted                   0                       # number of work items this cpu completed
system.cpu2.kern.inst.arm                           0                       # number of arm instructions executed
system.cpu2.kern.inst.quiesce                       0                       # number of quiesce instructions executed
system.cpu2.committedInsts                   48714058                       # Number of instructions committed
system.cpu2.committedOps                     85845292                       # Number of ops (including micro ops) committed
system.cpu2.num_int_alu_accesses             75326223                       # Number of integer alu accesses
system.cpu2.num_fp_alu_accesses              19656007                       # Number of float alu accesses
system.cpu2.num_func_calls                    1291886                       # number of times a function call or return occured
system.cpu2.num_conditional_control_insts      6489519                       # number of instructions that are conditional controls
system.cpu2.num_int_insts                    75326223                       # number of integer instructions
system.cpu2.num_fp_insts                     19656007                       # number of float instructions
system.cpu2.num_int_register_reads          154339402                       # number of times the integer registers were read
system.cpu2.num_int_register_writes          56230447                       # number of times the integer registers were written
system.cpu2.num_fp_register_reads            27213054                       # number of times the floating registers were read
system.cpu2.num_fp_register_writes           14482919                       # number of times the floating registers were written
system.cpu2.num_cc_register_reads            58179836                       # number of times the CC registers were read
system.cpu2.num_cc_register_writes           23635706                       # number of times the CC registers were written
system.cpu2.num_mem_refs                     20374525                       # number of memory refs
system.cpu2.num_load_insts                   13760151                       # Number of load instructions
system.cpu2.num_store_insts                   6614374                       # Number of store instructions
system.cpu2.num_idle_cycles              5777058669.133862                       # Number of idle cycles
system.cpu2.num_busy_cycles              181920412.866138                       # Number of busy cycles
system.cpu2.not_idle_fraction                0.030529                       # Percentage of non-idle cycles
system.cpu2.idle_fraction                    0.969471                       # Percentage of idle cycles
system.cpu2.Branches                          8756743                       # Number of branches fetched
system.cpu2.op_class::No_OpClass               214375      0.25%      0.25% # Class of executed instruction
system.cpu2.op_class::IntAlu                 56195163     65.46%     65.71% # Class of executed instruction
system.cpu2.op_class::IntMult                  243858      0.28%     65.99% # Class of executed instruction
system.cpu2.op_class::IntDiv                   842098      0.98%     66.98% # Class of executed instruction
system.cpu2.op_class::FloatAdd                7917526      9.22%     76.20% # Class of executed instruction
system.cpu2.op_class::FloatCmp                      0      0.00%     76.20% # Class of executed instruction
system.cpu2.op_class::FloatCvt                      0      0.00%     76.20% # Class of executed instruction
system.cpu2.op_class::FloatMult                     0      0.00%     76.20% # Class of executed instruction
system.cpu2.op_class::FloatDiv                  57876      0.07%     76.27% # Class of executed instruction
system.cpu2.op_class::FloatSqrt                     0      0.00%     76.27% # Class of executed instruction
system.cpu2.op_class::SimdAdd                       0      0.00%     76.27% # Class of executed instruction
system.cpu2.op_class::SimdAddAcc                    0      0.00%     76.27% # Class of executed instruction
system.cpu2.op_class::SimdAlu                       0      0.00%     76.27% # Class of executed instruction
system.cpu2.op_class::SimdCmp                       0      0.00%     76.27% # Class of executed instruction
system.cpu2.op_class::SimdCvt                       0      0.00%     76.27% # Class of executed instruction
system.cpu2.op_class::SimdMisc                      0      0.00%     76.27% # Class of executed instruction
system.cpu2.op_class::SimdMult                      0      0.00%     76.27% # Class of executed instruction
system.cpu2.op_class::SimdMultAcc                   0      0.00%     76.27% # Class of executed instruction
system.cpu2.op_class::SimdShift                     0      0.00%     76.27% # Class of executed instruction
system.cpu2.op_class::SimdShiftAcc                  0      0.00%     76.27% # Class of executed instruction
system.cpu2.op_class::SimdSqrt                      0      0.00%     76.27% # Class of executed instruction
system.cpu2.op_class::SimdFloatAdd                  0      0.00%     76.27% # Class of executed instruction
system.cpu2.op_class::SimdFloatAlu                  0      0.00%     76.27% # Class of executed instruction
system.cpu2.op_class::SimdFloatCmp                  0      0.00%     76.27% # Class of executed instruction
system.cpu2.op_class::SimdFloatCvt                  0      0.00%     76.27% # Class of executed instruction
system.cpu2.op_class::SimdFloatDiv                  0      0.00%     76.27% # Class of executed instruction
system.cpu2.op_class::SimdFloatMisc                 0      0.00%     76.27% # Class of executed instruction
system.cpu2.op_class::SimdFloatMult                 0      0.00%     76.27% # Class of executed instruction
system.cpu2.op_class::SimdFloatMultAcc              0      0.00%     76.27% # Class of executed instruction
system.cpu2.op_class::SimdFloatSqrt                 0      0.00%     76.27% # Class of executed instruction
system.cpu2.op_class::MemRead                13760151     16.03%     92.30% # Class of executed instruction
system.cpu2.op_class::MemWrite                6614374      7.70%    100.00% # Class of executed instruction
system.cpu2.op_class::IprAccess                     0      0.00%    100.00% # Class of executed instruction
system.cpu2.op_class::InstPrefetch                  0      0.00%    100.00% # Class of executed instruction
system.cpu2.op_class::total                  85845421                       # Class of executed instruction
system.cpu3.apic_clk_domain.clock                8000                       # Clock period in ticks
system.cpu3.numCycles                      5958963882                       # number of cpu cycles simulated
system.cpu3.numWorkItemsStarted                     0                       # number of work items this cpu started
system.cpu3.numWorkItemsCompleted                   0                       # number of work items this cpu completed
system.cpu3.kern.inst.arm                           0                       # number of arm instructions executed
system.cpu3.kern.inst.quiesce                       0                       # number of quiesce instructions executed
system.cpu3.committedInsts                    2750292                       # Number of instructions committed
system.cpu3.committedOps                      5829035                       # Number of ops (including micro ops) committed
system.cpu3.num_int_alu_accesses              5714901                       # Number of integer alu accesses
system.cpu3.num_fp_alu_accesses                    50                       # Number of float alu accesses
system.cpu3.num_func_calls                     150719                       # number of times a function call or return occured
system.cpu3.num_conditional_control_insts       478744                       # number of instructions that are conditional controls
system.cpu3.num_int_insts                     5714901                       # number of integer instructions
system.cpu3.num_fp_insts                           50                       # number of float instructions
system.cpu3.num_int_register_reads           11303127                       # number of times the integer registers were read
system.cpu3.num_int_register_writes           4710148                       # number of times the integer registers were written
system.cpu3.num_fp_register_reads                  78                       # number of times the floating registers were read
system.cpu3.num_fp_register_writes                 38                       # number of times the floating registers were written
system.cpu3.num_cc_register_reads             3633203                       # number of times the CC registers were read
system.cpu3.num_cc_register_writes            1836141                       # number of times the CC registers were written
system.cpu3.num_mem_refs                      1271042                       # number of memory refs
system.cpu3.num_load_insts                     793276                       # Number of load instructions
system.cpu3.num_store_insts                    477766                       # Number of store instructions
system.cpu3.num_idle_cycles              5947734601.493246                       # Number of idle cycles
system.cpu3.num_busy_cycles              11229280.506754                       # Number of busy cycles
system.cpu3.not_idle_fraction                0.001884                       # Percentage of non-idle cycles
system.cpu3.idle_fraction                    0.998116                       # Percentage of idle cycles
system.cpu3.Branches                           676908                       # Number of branches fetched
system.cpu3.op_class::No_OpClass                92416      1.59%      1.59% # Class of executed instruction
system.cpu3.op_class::IntAlu                  4422501     75.87%     77.46% # Class of executed instruction
system.cpu3.op_class::IntMult                   10357      0.18%     77.63% # Class of executed instruction
system.cpu3.op_class::IntDiv                    32710      0.56%     78.19% # Class of executed instruction
system.cpu3.op_class::FloatAdd                     32      0.00%     78.19% # Class of executed instruction
system.cpu3.op_class::FloatCmp                      0      0.00%     78.19% # Class of executed instruction
system.cpu3.op_class::FloatCvt                      0      0.00%     78.19% # Class of executed instruction
system.cpu3.op_class::FloatMult                     0      0.00%     78.19% # Class of executed instruction
system.cpu3.op_class::FloatDiv                      0      0.00%     78.19% # Class of executed instruction
system.cpu3.op_class::FloatSqrt                     0      0.00%     78.19% # Class of executed instruction
system.cpu3.op_class::SimdAdd                       0      0.00%     78.19% # Class of executed instruction
system.cpu3.op_class::SimdAddAcc                    0      0.00%     78.19% # Class of executed instruction
system.cpu3.op_class::SimdAlu                       0      0.00%     78.19% # Class of executed instruction
system.cpu3.op_class::SimdCmp                       0      0.00%     78.19% # Class of executed instruction
system.cpu3.op_class::SimdCvt                       0      0.00%     78.19% # Class of executed instruction
system.cpu3.op_class::SimdMisc                      0      0.00%     78.19% # Class of executed instruction
system.cpu3.op_class::SimdMult                      0      0.00%     78.19% # Class of executed instruction
system.cpu3.op_class::SimdMultAcc                   0      0.00%     78.19% # Class of executed instruction
system.cpu3.op_class::SimdShift                     0      0.00%     78.19% # Class of executed instruction
system.cpu3.op_class::SimdShiftAcc                  0      0.00%     78.19% # Class of executed instruction
system.cpu3.op_class::SimdSqrt                      0      0.00%     78.19% # Class of executed instruction
system.cpu3.op_class::SimdFloatAdd                  0      0.00%     78.19% # Class of executed instruction
system.cpu3.op_class::SimdFloatAlu                  0      0.00%     78.19% # Class of executed instruction
system.cpu3.op_class::SimdFloatCmp                  0      0.00%     78.19% # Class of executed instruction
system.cpu3.op_class::SimdFloatCvt                  0      0.00%     78.19% # Class of executed instruction
system.cpu3.op_class::SimdFloatDiv                  0      0.00%     78.19% # Class of executed instruction
system.cpu3.op_class::SimdFloatMisc                 0      0.00%     78.19% # Class of executed instruction
system.cpu3.op_class::SimdFloatMult                 0      0.00%     78.19% # Class of executed instruction
system.cpu3.op_class::SimdFloatMultAcc              0      0.00%     78.19% # Class of executed instruction
system.cpu3.op_class::SimdFloatSqrt                 0      0.00%     78.19% # Class of executed instruction
system.cpu3.op_class::MemRead                  793276     13.61%     91.80% # Class of executed instruction
system.cpu3.op_class::MemWrite                 477766      8.20%    100.00% # Class of executed instruction
system.cpu3.op_class::IprAccess                     0      0.00%    100.00% # Class of executed instruction
system.cpu3.op_class::InstPrefetch                  0      0.00%    100.00% # Class of executed instruction
system.cpu3.op_class::total                   5829058                       # Class of executed instruction
system.iobus.trans_dist::ReadReq                  863                       # Transaction distribution
system.iobus.trans_dist::ReadResp                 863                       # Transaction distribution
system.iobus.trans_dist::WriteReq                4608                       # Transaction distribution
system.iobus.trans_dist::WriteResp               4608                       # Transaction distribution
system.iobus.trans_dist::MessageReq               111                       # Transaction distribution
system.iobus.trans_dist::MessageResp              111                       # Transaction distribution
system.iobus.pkt_count_system.pc.south_bridge.io_apic.int_master::system.ruby.l1_cntrl0.sequencer.pio-slave-port           50                       # Packet count per connected master and slave (bytes)
system.iobus.pkt_count_system.pc.south_bridge.io_apic.int_master::system.ruby.l1_cntrl1.sequencer.pio-slave-port           50                       # Packet count per connected master and slave (bytes)
system.iobus.pkt_count_system.pc.south_bridge.io_apic.int_master::system.ruby.l1_cntrl2.sequencer.pio-slave-port           50                       # Packet count per connected master and slave (bytes)
system.iobus.pkt_count_system.pc.south_bridge.io_apic.int_master::system.ruby.l1_cntrl3.sequencer.pio-slave-port           52                       # Packet count per connected master and slave (bytes)
system.iobus.pkt_count_system.pc.south_bridge.io_apic.int_master::total          202                       # Packet count per connected master and slave (bytes)
system.iobus.pkt_count_system.ruby.l1_cntrl0.sequencer.mem-master-port::system.pc.south_bridge.ide.pio         1082                       # Packet count per connected master and slave (bytes)
system.iobus.pkt_count_system.ruby.l1_cntrl0.sequencer.mem-master-port::system.ruby.l1_cntrl0.sequencer.pio-slave-port         1572                       # Packet count per connected master and slave (bytes)
system.iobus.pkt_count_system.ruby.l1_cntrl0.sequencer.mem-master-port::system.ruby.l1_cntrl1.sequencer.pio-slave-port            2                       # Packet count per connected master and slave (bytes)
system.iobus.pkt_count_system.ruby.l1_cntrl0.sequencer.mem-master-port::system.ruby.l1_cntrl2.sequencer.pio-slave-port            4                       # Packet count per connected master and slave (bytes)
system.iobus.pkt_count_system.ruby.l1_cntrl0.sequencer.mem-master-port::system.ruby.l1_cntrl3.sequencer.pio-slave-port            6                       # Packet count per connected master and slave (bytes)
system.iobus.pkt_count_system.ruby.l1_cntrl0.sequencer.mem-master-port::total         2666                       # Packet count per connected master and slave (bytes)
system.iobus.pkt_count_system.ruby.l1_cntrl1.sequencer.mem-master-port::system.pc.south_bridge.ide.pio         1308                       # Packet count per connected master and slave (bytes)
system.iobus.pkt_count_system.ruby.l1_cntrl1.sequencer.mem-master-port::system.pc.south_bridge.io_apic.pio            6                       # Packet count per connected master and slave (bytes)
system.iobus.pkt_count_system.ruby.l1_cntrl1.sequencer.mem-master-port::system.pc.com_1.pio          174                       # Packet count per connected master and slave (bytes)
system.iobus.pkt_count_system.ruby.l1_cntrl1.sequencer.mem-master-port::system.ruby.l1_cntrl1.sequencer.pio-slave-port         1550                       # Packet count per connected master and slave (bytes)
system.iobus.pkt_count_system.ruby.l1_cntrl1.sequencer.mem-master-port::system.ruby.l1_cntrl2.sequencer.pio-slave-port            2                       # Packet count per connected master and slave (bytes)
system.iobus.pkt_count_system.ruby.l1_cntrl1.sequencer.mem-master-port::total         3040                       # Packet count per connected master and slave (bytes)
system.iobus.pkt_count_system.ruby.l1_cntrl2.sequencer.mem-master-port::system.pc.south_bridge.ide.pio         1104                       # Packet count per connected master and slave (bytes)
system.iobus.pkt_count_system.ruby.l1_cntrl2.sequencer.mem-master-port::system.pc.south_bridge.io_apic.pio            8                       # Packet count per connected master and slave (bytes)
system.iobus.pkt_count_system.ruby.l1_cntrl2.sequencer.mem-master-port::system.ruby.l1_cntrl1.sequencer.pio-slave-port            2                       # Packet count per connected master and slave (bytes)
system.iobus.pkt_count_system.ruby.l1_cntrl2.sequencer.mem-master-port::system.ruby.l1_cntrl2.sequencer.pio-slave-port         1558                       # Packet count per connected master and slave (bytes)
system.iobus.pkt_count_system.ruby.l1_cntrl2.sequencer.mem-master-port::system.ruby.l1_cntrl3.sequencer.pio-slave-port            2                       # Packet count per connected master and slave (bytes)
system.iobus.pkt_count_system.ruby.l1_cntrl2.sequencer.mem-master-port::total         2674                       # Packet count per connected master and slave (bytes)
system.iobus.pkt_count_system.ruby.l1_cntrl3.sequencer.mem-master-port::system.pc.south_bridge.ide.pio         1014                       # Packet count per connected master and slave (bytes)
system.iobus.pkt_count_system.ruby.l1_cntrl3.sequencer.mem-master-port::system.pc.south_bridge.io_apic.pio            8                       # Packet count per connected master and slave (bytes)
system.iobus.pkt_count_system.ruby.l1_cntrl3.sequencer.mem-master-port::system.pc.com_1.pio            2                       # Packet count per connected master and slave (bytes)
system.iobus.pkt_count_system.ruby.l1_cntrl3.sequencer.mem-master-port::system.ruby.l1_cntrl0.sequencer.pio-slave-port            2                       # Packet count per connected master and slave (bytes)
system.iobus.pkt_count_system.ruby.l1_cntrl3.sequencer.mem-master-port::system.ruby.l1_cntrl3.sequencer.pio-slave-port         1556                       # Packet count per connected master and slave (bytes)
system.iobus.pkt_count_system.ruby.l1_cntrl3.sequencer.mem-master-port::total         2582                       # Packet count per connected master and slave (bytes)
system.iobus.pkt_count::total                   11164                       # Packet count per connected master and slave (bytes)
system.iobus.pkt_size_system.pc.south_bridge.io_apic.int_master::system.ruby.l1_cntrl0.sequencer.pio-slave-port          100                       # Cumulative packet size per connected master and slave (bytes)
system.iobus.pkt_size_system.pc.south_bridge.io_apic.int_master::system.ruby.l1_cntrl1.sequencer.pio-slave-port          100                       # Cumulative packet size per connected master and slave (bytes)
system.iobus.pkt_size_system.pc.south_bridge.io_apic.int_master::system.ruby.l1_cntrl2.sequencer.pio-slave-port          100                       # Cumulative packet size per connected master and slave (bytes)
system.iobus.pkt_size_system.pc.south_bridge.io_apic.int_master::system.ruby.l1_cntrl3.sequencer.pio-slave-port          104                       # Cumulative packet size per connected master and slave (bytes)
system.iobus.pkt_size_system.pc.south_bridge.io_apic.int_master::total          404                       # Cumulative packet size per connected master and slave (bytes)
system.iobus.pkt_size_system.ruby.l1_cntrl0.sequencer.mem-master-port::system.pc.south_bridge.ide.pio          610                       # Cumulative packet size per connected master and slave (bytes)
system.iobus.pkt_size_system.ruby.l1_cntrl0.sequencer.mem-master-port::system.ruby.l1_cntrl0.sequencer.pio-slave-port         3144                       # Cumulative packet size per connected master and slave (bytes)
system.iobus.pkt_size_system.ruby.l1_cntrl0.sequencer.mem-master-port::system.ruby.l1_cntrl1.sequencer.pio-slave-port            4                       # Cumulative packet size per connected master and slave (bytes)
system.iobus.pkt_size_system.ruby.l1_cntrl0.sequencer.mem-master-port::system.ruby.l1_cntrl2.sequencer.pio-slave-port            8                       # Cumulative packet size per connected master and slave (bytes)
system.iobus.pkt_size_system.ruby.l1_cntrl0.sequencer.mem-master-port::system.ruby.l1_cntrl3.sequencer.pio-slave-port           12                       # Cumulative packet size per connected master and slave (bytes)
system.iobus.pkt_size_system.ruby.l1_cntrl0.sequencer.mem-master-port::total         3778                       # Cumulative packet size per connected master and slave (bytes)
system.iobus.pkt_size_system.ruby.l1_cntrl1.sequencer.mem-master-port::system.pc.south_bridge.ide.pio          744                       # Cumulative packet size per connected master and slave (bytes)
system.iobus.pkt_size_system.ruby.l1_cntrl1.sequencer.mem-master-port::system.pc.south_bridge.io_apic.pio           12                       # Cumulative packet size per connected master and slave (bytes)
system.iobus.pkt_size_system.ruby.l1_cntrl1.sequencer.mem-master-port::system.pc.com_1.pio           87                       # Cumulative packet size per connected master and slave (bytes)
system.iobus.pkt_size_system.ruby.l1_cntrl1.sequencer.mem-master-port::system.ruby.l1_cntrl1.sequencer.pio-slave-port         3100                       # Cumulative packet size per connected master and slave (bytes)
system.iobus.pkt_size_system.ruby.l1_cntrl1.sequencer.mem-master-port::system.ruby.l1_cntrl2.sequencer.pio-slave-port            4                       # Cumulative packet size per connected master and slave (bytes)
system.iobus.pkt_size_system.ruby.l1_cntrl1.sequencer.mem-master-port::total         3947                       # Cumulative packet size per connected master and slave (bytes)
system.iobus.pkt_size_system.ruby.l1_cntrl2.sequencer.mem-master-port::system.pc.south_bridge.ide.pio          624                       # Cumulative packet size per connected master and slave (bytes)
system.iobus.pkt_size_system.ruby.l1_cntrl2.sequencer.mem-master-port::system.pc.south_bridge.io_apic.pio           16                       # Cumulative packet size per connected master and slave (bytes)
system.iobus.pkt_size_system.ruby.l1_cntrl2.sequencer.mem-master-port::system.ruby.l1_cntrl1.sequencer.pio-slave-port            4                       # Cumulative packet size per connected master and slave (bytes)
system.iobus.pkt_size_system.ruby.l1_cntrl2.sequencer.mem-master-port::system.ruby.l1_cntrl2.sequencer.pio-slave-port         3116                       # Cumulative packet size per connected master and slave (bytes)
system.iobus.pkt_size_system.ruby.l1_cntrl2.sequencer.mem-master-port::system.ruby.l1_cntrl3.sequencer.pio-slave-port            4                       # Cumulative packet size per connected master and slave (bytes)
system.iobus.pkt_size_system.ruby.l1_cntrl2.sequencer.mem-master-port::total         3764                       # Cumulative packet size per connected master and slave (bytes)
system.iobus.pkt_size_system.ruby.l1_cntrl3.sequencer.mem-master-port::system.pc.south_bridge.ide.pio          570                       # Cumulative packet size per connected master and slave (bytes)
system.iobus.pkt_size_system.ruby.l1_cntrl3.sequencer.mem-master-port::system.pc.south_bridge.io_apic.pio           16                       # Cumulative packet size per connected master and slave (bytes)
system.iobus.pkt_size_system.ruby.l1_cntrl3.sequencer.mem-master-port::system.pc.com_1.pio            1                       # Cumulative packet size per connected master and slave (bytes)
system.iobus.pkt_size_system.ruby.l1_cntrl3.sequencer.mem-master-port::system.ruby.l1_cntrl0.sequencer.pio-slave-port            4                       # Cumulative packet size per connected master and slave (bytes)
system.iobus.pkt_size_system.ruby.l1_cntrl3.sequencer.mem-master-port::system.ruby.l1_cntrl3.sequencer.pio-slave-port         3112                       # Cumulative packet size per connected master and slave (bytes)
system.iobus.pkt_size_system.ruby.l1_cntrl3.sequencer.mem-master-port::total         3703                       # Cumulative packet size per connected master and slave (bytes)
system.iobus.pkt_size::total                    15596                       # Cumulative packet size per connected master and slave (bytes)
system.iobus.reqLayer2.occupancy              3881000                       # Layer occupancy (ticks)
system.iobus.reqLayer2.utilization                0.0                       # Layer utilization (%)
system.iobus.reqLayer8.occupancy                21497                       # Layer occupancy (ticks)
system.iobus.reqLayer8.utilization                0.0                       # Layer utilization (%)
system.iobus.reqLayer12.occupancy              113500                       # Layer occupancy (ticks)
system.iobus.reqLayer12.utilization               0.0                       # Layer utilization (%)
system.iobus.reqLayer17.occupancy             2186753                       # Layer occupancy (ticks)
system.iobus.reqLayer17.utilization               0.0                       # Layer utilization (%)
system.iobus.reqLayer18.occupancy             2001976                       # Layer occupancy (ticks)
system.iobus.reqLayer18.utilization               0.0                       # Layer utilization (%)
system.iobus.reqLayer19.occupancy             2008468                       # Layer occupancy (ticks)
system.iobus.reqLayer19.utilization               0.0                       # Layer utilization (%)
system.iobus.reqLayer20.occupancy             2015974                       # Layer occupancy (ticks)
system.iobus.reqLayer20.utilization               0.0                       # Layer utilization (%)
system.iobus.respLayer0.occupancy              173902                       # Layer occupancy (ticks)
system.iobus.respLayer0.utilization               0.0                       # Layer utilization (%)
system.iobus.respLayer2.occupancy             1923000                       # Layer occupancy (ticks)
system.iobus.respLayer2.utilization               0.0                       # Layer utilization (%)
system.iobus.respLayer4.occupancy             2190500                       # Layer occupancy (ticks)
system.iobus.respLayer4.utilization               0.0                       # Layer utilization (%)
system.iobus.respLayer6.occupancy             1922500                       # Layer occupancy (ticks)
system.iobus.respLayer6.utilization               0.0                       # Layer utilization (%)
system.iobus.respLayer8.occupancy             1867000                       # Layer occupancy (ticks)
system.iobus.respLayer8.utilization               0.0                       # Layer utilization (%)
system.pc.south_bridge.ide.disks.dma_read_full_pages         1522                       # Number of full page size DMA reads (not PRD).
system.pc.south_bridge.ide.disks.dma_read_bytes      6234112                       # Number of bytes transfered via DMA reads (not PRD).
system.pc.south_bridge.ide.disks.dma_read_txs         1522                       # Number of DMA read transactions (not PRD).
system.pc.south_bridge.ide.disks.dma_write_full_pages           45                       # Number of full page size DMA writes.
system.pc.south_bridge.ide.disks.dma_write_bytes       184320                       # Number of bytes transfered via DMA writes.
system.pc.south_bridge.ide.disks.dma_write_txs           45                       # Number of DMA write transactions.
system.ruby.clk_domain.clock                      500                       # Clock period in ticks
system.ruby.outstanding_req_hist_seqr::bucket_size            1                      
system.ruby.outstanding_req_hist_seqr::max_bucket            9                      
system.ruby.outstanding_req_hist_seqr::samples   2882300554                      
system.ruby.outstanding_req_hist_seqr::mean     1.000000                      
system.ruby.outstanding_req_hist_seqr::gmean     1.000000                      
system.ruby.outstanding_req_hist_seqr::stdev     0.000264                      
system.ruby.outstanding_req_hist_seqr    |           0      0.00%      0.00% |  2882300353    100.00%    100.00% |         201      0.00%    100.00% |           0      0.00%    100.00% |           0      0.00%    100.00% |           0      0.00%    100.00% |           0      0.00%    100.00% |           0      0.00%    100.00% |           0      0.00%    100.00% |           0      0.00%    100.00%
system.ruby.outstanding_req_hist_seqr::total   2882300554                      
system.ruby.latency_hist_seqr::bucket_size          128                      
system.ruby.latency_hist_seqr::max_bucket         1279                      
system.ruby.latency_hist_seqr::samples     2882300554                      
system.ruby.latency_hist_seqr::mean          1.080296                      
system.ruby.latency_hist_seqr::gmean         1.018924                      
system.ruby.latency_hist_seqr::stdev         1.031109                      
system.ruby.latency_hist_seqr            |  2882297300    100.00%    100.00% |        2472      0.00%    100.00% |         184      0.00%    100.00% |         193      0.00%    100.00% |         327      0.00%    100.00% |          77      0.00%    100.00% |           1      0.00%    100.00% |           0      0.00%    100.00% |           0      0.00%    100.00% |           0      0.00%    100.00%
system.ruby.latency_hist_seqr::total       2882300554                      
system.ruby.hit_latency_hist_seqr::bucket_size            2                      
system.ruby.hit_latency_hist_seqr::max_bucket           19                      
system.ruby.hit_latency_hist_seqr::samples   2882165243                      
system.ruby.hit_latency_hist_seqr::mean      1.077412                      
system.ruby.hit_latency_hist_seqr::gmean     1.018736                      
system.ruby.hit_latency_hist_seqr::stdev     0.876430                      
system.ruby.hit_latency_hist_seqr        |  2859853752     99.23%     99.23% |           0      0.00%     99.23% |           0      0.00%     99.23% |           0      0.00%     99.23% |           0      0.00%     99.23% |    22311491      0.77%    100.00% |           0      0.00%    100.00% |           0      0.00%    100.00% |           0      0.00%    100.00% |           0      0.00%    100.00%
system.ruby.hit_latency_hist_seqr::total   2882165243                      
system.ruby.miss_latency_hist_seqr::bucket_size          128                      
system.ruby.miss_latency_hist_seqr::max_bucket         1279                      
system.ruby.miss_latency_hist_seqr::samples       135311                      
system.ruby.miss_latency_hist_seqr::mean    62.505546                      
system.ruby.miss_latency_hist_seqr::gmean    51.502407                      
system.ruby.miss_latency_hist_seqr::stdev    50.126056                      
[...]
system.ruby.L1Cache_Controller.O.Other_GETS::total        24576                      
system.ruby.L1Cache_Controller.O.Merged_GETS |           0      0.00%      0.00% |           0      0.00%      0.00% |           0      0.00%      0.00% |           1    100.00%    100.00%
system.ruby.L1Cache_Controller.O.Merged_GETS::total            1                      
system.ruby.L1Cache_Controller.M.Load    |   175008137     96.62%     96.62% |      181907      0.10%     96.72% |     5838165      3.22%     99.94% |      105328      0.06%    100.00%
system.ruby.L1Cache_Controller.M.Load::total    181133537                      
system.ruby.L1Cache_Controller.M.Ifetch  |   189473724     72.03%     72.03% |     2268731      0.86%     72.90% |    71211820     27.07%     99.97% |       79325      0.03%    100.00%
system.ruby.L1Cache_Controller.M.Ifetch::total    263033600                      
system.ruby.L1Cache_Controller.M.Store   |       11804     36.90%     36.90% |        7116     22.24%     59.14% |       10031     31.35%     90.49% |        3041      9.51%    100.00%
system.ruby.L1Cache_Controller.M.Store::total        31992                      
system.ruby.L1Cache_Controller.M.L2_Replacement |       16048     48.88%     48.88% |         100      0.30%     49.18% |       16684     50.82%    100.00% |           0      0.00%    100.00%
system.ruby.L1Cache_Controller.M.L2_Replacement::total        32832                      
system.ruby.L1Cache_Controller.M.L1_to_L2 |    14374817     98.72%     98.72% |       17295      0.12%     98.84% |      164255      1.13%     99.97% |        4795      0.03%    100.00%
system.ruby.L1Cache_Controller.M.L1_to_L2::total     14561162                      
system.ruby.L1Cache_Controller.M.Trigger_L2_to_L1D |    13994382     99.08%     99.08% |        4809      0.03%     99.11% |      123232      0.87%     99.99% |        2071      0.01%    100.00%
system.ruby.L1Cache_Controller.M.Trigger_L2_to_L1D::total     14124494                      
system.ruby.L1Cache_Controller.M.Trigger_L2_to_L1I |      348921     95.67%     95.67% |        5825      1.60%     97.26% |        9761      2.68%     99.94% |         216      0.06%    100.00%
system.ruby.L1Cache_Controller.M.Trigger_L2_to_L1I::total       364723                      
system.ruby.L1Cache_Controller.M.Other_GETX |         906     35.88%     35.88% |         787     31.17%     67.05% |         264     10.46%     77.50% |         568     22.50%    100.00%
system.ruby.L1Cache_Controller.M.Other_GETX::total         2525                      
system.ruby.L1Cache_Controller.M.Other_GETS |        8580     26.35%     26.35% |       11266     34.59%     60.94% |        7523     23.10%     84.04% |        5198     15.96%    100.00%
system.ruby.L1Cache_Controller.M.Other_GETS::total        32567                      
system.ruby.L1Cache_Controller.M.Merged_GETS |          68     61.26%     61.26% |          30     27.03%     88.29% |           6      5.41%     93.69% |           7      6.31%    100.00%
system.ruby.L1Cache_Controller.M.Merged_GETS::total          111                      
system.ruby.L1Cache_Controller.MM.Load   |   196328027     94.70%     94.70% |     1191963      0.57%     95.27% |     9205847      4.44%     99.71% |      595674      0.29%    100.00%
system.ruby.L1Cache_Controller.MM.Load::total    207321511                      
system.ruby.L1Cache_Controller.MM.Store  |   161385414     94.09%     94.09% |     1182471      0.69%     94.78% |     8298738      4.84%     99.62% |      660297      0.38%    100.00%
system.ruby.L1Cache_Controller.MM.Store::total    171526920                      
system.ruby.L1Cache_Controller.MM.L2_Replacement |        6436     41.44%     41.44% |         115      0.74%     42.18% |        8980     57.82%    100.00% |           0      0.00%    100.00%
system.ruby.L1Cache_Controller.MM.L2_Replacement::total        15531                      
system.ruby.L1Cache_Controller.MM.L1_to_L2 |     2770972     95.92%     95.92% |       33592      1.16%     97.09% |       72314      2.50%     99.59% |       11868      0.41%    100.00%
system.ruby.L1Cache_Controller.MM.L1_to_L2::total      2888746                      
system.ruby.L1Cache_Controller.MM.Trigger_L2_to_L1D |     2742469     97.36%     97.36% |       16349      0.58%     97.94% |       52083      1.85%     99.79% |        5821      0.21%    100.00%
system.ruby.L1Cache_Controller.MM.Trigger_L2_to_L1D::total      2816722                      
system.ruby.L1Cache_Controller.MM.Other_GETX |        3567     23.71%     23.71% |        4124     27.41%     51.11% |        3912     26.00%     77.11% |        3444     22.89%    100.00%
system.ruby.L1Cache_Controller.MM.Other_GETX::total        15047                      
system.ruby.L1Cache_Controller.MM.Other_GETS |       14048     34.19%     34.19% |       11640     28.33%     62.51% |        9703     23.61%     86.13% |        5700     13.87%    100.00%
system.ruby.L1Cache_Controller.MM.Other_GETS::total        41091                      
system.ruby.L1Cache_Controller.MM.Merged_GETS |         237     29.92%     29.92% |         243     30.68%     60.61% |          68      8.59%     69.19% |         244     30.81%    100.00%
system.ruby.L1Cache_Controller.MM.Merged_GETS::total          792                      
system.ruby.L1Cache_Controller.SR.Load   |     4005114     99.52%     99.52% |        7663      0.19%     99.71% |        6278      0.16%     99.87% |        5261      0.13%    100.00%
system.ruby.L1Cache_Controller.SR.Load::total      4024316                      
system.ruby.L1Cache_Controller.SR.Ifetch |      679440     86.82%     86.82% |       36491      4.66%     91.48% |       31421      4.02%     95.50% |       35238      4.50%    100.00%
system.ruby.L1Cache_Controller.SR.Ifetch::total       782590                      
system.ruby.L1Cache_Controller.SR.Store  |         170     30.25%     30.25% |         101     17.97%     48.22% |         260     46.26%     94.48% |          31      5.52%    100.00%
system.ruby.L1Cache_Controller.SR.Store::total          562                      
system.ruby.L1Cache_Controller.OR.Load   |      266492     96.23%     96.23% |        2600      0.94%     97.17% |        6567      2.37%     99.54% |        1264      0.46%    100.00%
system.ruby.L1Cache_Controller.OR.Load::total       276923                      
system.ruby.L1Cache_Controller.OR.Ifetch |       10803     20.41%     20.41% |       14838     28.03%     48.44% |       23943     45.23%     93.66% |        3354      6.34%    100.00%
system.ruby.L1Cache_Controller.OR.Ifetch::total        52938                      
system.ruby.L1Cache_Controller.OR.Store  |          19     41.30%     41.30% |           8     17.39%     58.70% |           9     19.57%     78.26% |          10     21.74%    100.00%
system.ruby.L1Cache_Controller.OR.Store::total           46                      
system.ruby.L1Cache_Controller.MR.Load   |    13993482     99.09%     99.09% |        4157      0.03%     99.12% |      121927      0.86%     99.99% |        1984      0.01%    100.00%
system.ruby.L1Cache_Controller.MR.Load::total     14121550                      
system.ruby.L1Cache_Controller.MR.Ifetch |      348921     95.67%     95.67% |        5825      1.60%     97.26% |        9761      2.68%     99.94% |         216      0.06%    100.00%
system.ruby.L1Cache_Controller.MR.Ifetch::total       364723                      
system.ruby.L1Cache_Controller.MR.Store  |         900     30.57%     30.57% |         652     22.15%     52.72% |        1305     44.33%     97.04% |          87      2.96%    100.00%
system.ruby.L1Cache_Controller.MR.Store::total         2944                      
system.ruby.L1Cache_Controller.MMR.Load  |     1252209     97.10%     97.10% |       10956      0.85%     97.95% |       24025      1.86%     99.81% |        2404      0.19%    100.00%
system.ruby.L1Cache_Controller.MMR.Load::total      1289594                      
system.ruby.L1Cache_Controller.MMR.Store |     1490260     97.59%     97.59% |        5393      0.35%     97.94% |       28058      1.84%     99.78% |        3417      0.22%    100.00%
system.ruby.L1Cache_Controller.MMR.Store::total      1527128                      
system.ruby.L1Cache_Controller.IM.Ack    |       20879     24.34%     24.34% |       31057     36.21%     60.55% |       22153     25.83%     86.38% |       11685     13.62%    100.00%
system.ruby.L1Cache_Controller.IM.Ack::total        85774                      
system.ruby.L1Cache_Controller.IM.Data   |        2841     41.17%     41.17% |        1400     20.29%     61.45% |        1357     19.66%     81.12% |        1303     18.88%    100.00%
system.ruby.L1Cache_Controller.IM.Data::total         6901                      
system.ruby.L1Cache_Controller.IM.Exclusive_Data |       11089     28.88%     28.88% |       11501     29.95%     58.83% |       11315     29.46%     88.29% |        4497     11.71%    100.00%
system.ruby.L1Cache_Controller.IM.Exclusive_Data::total        38402                      
system.ruby.L1Cache_Controller.SM.Other_GETX |           1    100.00%    100.00% |           0      0.00%    100.00% |           0      0.00%    100.00% |           0      0.00%    100.00%
system.ruby.L1Cache_Controller.SM.Other_GETX::total            1                      
system.ruby.L1Cache_Controller.SM.Ack    |        3489     33.05%     33.05% |        1854     17.56%     50.61% |        3183     30.15%     80.76% |        2031     19.24%    100.00%
system.ruby.L1Cache_Controller.SM.Ack::total        10557                      
system.ruby.L1Cache_Controller.SM.Data   |        5504     44.59%     44.59% |        2159     17.49%     62.08% |        2776     22.49%     84.57% |        1905     15.43%    100.00%
system.ruby.L1Cache_Controller.SM.Data::total        12344                      
system.ruby.L1Cache_Controller.OM.Ack    |         567     47.37%     47.37% |         210     17.54%     64.91% |         225     18.80%     83.71% |         195     16.29%    100.00%
system.ruby.L1Cache_Controller.OM.Ack::total         1197                      
system.ruby.L1Cache_Controller.OM.All_acks_no_sharers |         189     47.37%     47.37% |          70     17.54%     64.91% |          75     18.80%     83.71% |          65     16.29%    100.00%
system.ruby.L1Cache_Controller.OM.All_acks_no_sharers::total          399                      
system.ruby.L1Cache_Controller.ISM.Ack   |       11538     52.36%     52.36% |        4093     18.57%     70.93% |        3304     14.99%     85.92% |        3102     14.08%    100.00%
system.ruby.L1Cache_Controller.ISM.Ack::total        22037                      
system.ruby.L1Cache_Controller.ISM.All_acks_no_sharers |        8345     43.36%     43.36% |        3559     18.49%     61.86% |        4133     21.48%     83.33% |        3208     16.67%    100.00%
system.ruby.L1Cache_Controller.ISM.All_acks_no_sharers::total        19245                      
system.ruby.L1Cache_Controller.M_W.Load  |         135     29.03%     29.03% |         158     33.98%     63.01% |         114     24.52%     87.53% |          58     12.47%    100.00%
system.ruby.L1Cache_Controller.M_W.Load::total          465                      
system.ruby.L1Cache_Controller.M_W.Store |         403     83.09%     83.09% |          62     12.78%     95.88% |          18      3.71%     99.59% |           2      0.41%    100.00%
system.ruby.L1Cache_Controller.M_W.Store::total          485                      
system.ruby.L1Cache_Controller.M_W.Ack   |        7404     18.43%     18.43% |       13205     32.87%     51.30% |       14387     35.82%     87.12% |        5174     12.88%    100.00%
system.ruby.L1Cache_Controller.M_W.Ack::total        40170                      
system.ruby.L1Cache_Controller.M_W.All_acks_no_sharers |       44842     36.14%     36.14% |       22842     18.41%     54.55% |       46628     37.58%     92.12% |        9774      7.88%    100.00%
system.ruby.L1Cache_Controller.M_W.All_acks_no_sharers::total       124086                      
system.ruby.L1Cache_Controller.MM_W.Load |           0      0.00%      0.00% |           0      0.00%      0.00% |           1    100.00%    100.00% |           0      0.00%    100.00%
system.ruby.L1Cache_Controller.MM_W.Load::total            1                      
system.ruby.L1Cache_Controller.MM_W.Store |        2600     34.23%     34.23% |        1239     16.31%     50.55% |        3089     40.67%     91.22% |         667      8.78%    100.00%
system.ruby.L1Cache_Controller.MM_W.Store::total         7595                      
system.ruby.L1Cache_Controller.MM_W.Ack  |        7245     39.58%     39.58% |        2523     13.78%     53.36% |        7207     39.37%     92.72% |        1332      7.28%    100.00%
system.ruby.L1Cache_Controller.MM_W.Ack::total        18307                      
system.ruby.L1Cache_Controller.MM_W.All_acks_no_sharers |       11492     29.55%     29.55% |       11563     29.73%     59.29% |       11333     29.14%     88.43% |        4499     11.57%    100.00%
system.ruby.L1Cache_Controller.MM_W.All_acks_no_sharers::total        38887                      
system.ruby.L1Cache_Controller.IS.Other_GETS |           0      0.00%      0.00% |           0      0.00%      0.00% |           1    100.00%    100.00% |           0      0.00%    100.00%
system.ruby.L1Cache_Controller.IS.Other_GETS::total            1                      
system.ruby.L1Cache_Controller.IS.Ack    |      130056     37.03%     37.03% |       52614     14.98%     52.01% |      136710     38.92%     90.93% |       31844      9.07%    100.00%
system.ruby.L1Cache_Controller.IS.Ack::total       351224                      
system.ruby.L1Cache_Controller.IS.Shared_Ack |        5743     33.50%     33.50% |        3237     18.88%     52.38% |        6554     38.23%     90.60% |        1611      9.40%    100.00%
system.ruby.L1Cache_Controller.IS.Shared_Ack::total        17145                      
system.ruby.L1Cache_Controller.IS.Data   |        1374     22.15%     22.15% |         838     13.51%     35.65% |        3859     62.20%     97.86% |         133      2.14%    100.00%
system.ruby.L1Cache_Controller.IS.Data::total         6204                      
system.ruby.L1Cache_Controller.IS.Shared_Data |       13673     23.55%     23.55% |        8810     15.18%     38.73% |       21359     36.80%     75.53% |       14206     24.47%    100.00%
system.ruby.L1Cache_Controller.IS.Shared_Data::total        58048                      
system.ruby.L1Cache_Controller.IS.Exclusive_Data |       45245     36.32%     36.32% |       22904     18.39%     54.71% |       46646     37.45%     92.15% |        9776      7.85%    100.00%
system.ruby.L1Cache_Controller.IS.Exclusive_Data::total       124571                      
system.ruby.L1Cache_Controller.SS.Load   |         164     79.61%     79.61% |          27     13.11%     92.72% |          11      5.34%     98.06% |           4      1.94%    100.00%
system.ruby.L1Cache_Controller.SS.Load::total          206                      
system.ruby.L1Cache_Controller.SS.Ifetch |        3708     52.08%     52.08% |        1538     21.60%     73.68% |        1248     17.53%     91.21% |         626      8.79%    100.00%
system.ruby.L1Cache_Controller.SS.Ifetch::total         7120                      
system.ruby.L1Cache_Controller.SS.Store  |          19     59.38%     59.38% |          13     40.62%    100.00% |           0      0.00%    100.00% |           0      0.00%    100.00%
system.ruby.L1Cache_Controller.SS.Store::total           32                      
system.ruby.L1Cache_Controller.SS.Ack    |        6969     18.68%     18.68% |        4725     12.66%     31.34% |       21100     56.54%     87.88% |        4523     12.12%    100.00%
system.ruby.L1Cache_Controller.SS.Ack::total        37317                      
system.ruby.L1Cache_Controller.SS.Shared_Ack |        8405     42.39%     42.39% |        3136     15.82%     58.21% |        1389      7.01%     65.21% |        6898     34.79%    100.00%
system.ruby.L1Cache_Controller.SS.Shared_Ack::total        19828                      
system.ruby.L1Cache_Controller.SS.All_acks |       14924     23.41%     23.41% |        9648     15.13%     38.54% |       24848     38.97%     77.51% |       14338     22.49%    100.00%
system.ruby.L1Cache_Controller.SS.All_acks::total        63758                      
system.ruby.L1Cache_Controller.SS.All_acks_no_sharers |         123     24.90%     24.90% |           0      0.00%     24.90% |         370     74.90%     99.80% |           1      0.20%    100.00%
system.ruby.L1Cache_Controller.SS.All_acks_no_sharers::total          494                      
system.ruby.L1Cache_Controller.OI.Load   |           0      0.00%      0.00% |           0      0.00%      0.00% |           6    100.00%    100.00% |           0      0.00%    100.00%
system.ruby.L1Cache_Controller.OI.Load::total            6                      
system.ruby.L1Cache_Controller.OI.Ifetch |           3     37.50%     37.50% |           0      0.00%     37.50% |           5     62.50%    100.00% |           0      0.00%    100.00%
system.ruby.L1Cache_Controller.OI.Ifetch::total            8                      
system.ruby.L1Cache_Controller.OI.Writeback_Ack |        4783     49.47%     49.47% |          47      0.49%     49.95% |        4839     50.05%    100.00% |           0      0.00%    100.00%
system.ruby.L1Cache_Controller.OI.Writeback_Ack::total         9669                      
system.ruby.L1Cache_Controller.MI.Load   |          13     81.25%     81.25% |           0      0.00%     81.25% |           3     18.75%    100.00% |           0      0.00%    100.00%
system.ruby.L1Cache_Controller.MI.Load::total           16                      
system.ruby.L1Cache_Controller.MI.Ifetch |           4     80.00%     80.00% |           0      0.00%     80.00% |           1     20.00%    100.00% |           0      0.00%    100.00%
system.ruby.L1Cache_Controller.MI.Ifetch::total            5                      
system.ruby.L1Cache_Controller.MI.Store  |          15     88.24%     88.24% |           1      5.88%     94.12% |           1      5.88%    100.00% |           0      0.00%    100.00%
system.ruby.L1Cache_Controller.MI.Store::total           17                      
system.ruby.L1Cache_Controller.MI.Writeback_Ack |       22484     46.49%     46.49% |         215      0.44%     46.93% |       25664     53.07%    100.00% |           0      0.00%    100.00%
system.ruby.L1Cache_Controller.MI.Writeback_Ack::total        48363                      
system.ruby.L1Cache_Controller.ST.Complete_L2_to_L1 |     4684724     97.45%     97.45% |       44255      0.92%     98.37% |       37959      0.79%     99.16% |       40530      0.84%    100.00%
system.ruby.L1Cache_Controller.ST.Complete_L2_to_L1::total      4807468                      
system.ruby.L1Cache_Controller.OT.Complete_L2_to_L1 |      277314     84.06%     84.06% |       17446      5.29%     89.35% |       30519      9.25%     98.60% |        4628      1.40%    100.00%
system.ruby.L1Cache_Controller.OT.Complete_L2_to_L1::total       329907                      
system.ruby.L1Cache_Controller.MT.Complete_L2_to_L1 |    14343303     98.99%     98.99% |       10634      0.07%     99.07% |      132993      0.92%     99.98% |        2287      0.02%    100.00%
system.ruby.L1Cache_Controller.MT.Complete_L2_to_L1::total     14489217                      
system.ruby.L1Cache_Controller.MMT.Complete_L2_to_L1 |     2742469     97.36%     97.36% |       16349      0.58%     97.94% |       52083      1.85%     99.79% |        5821      0.21%    100.00%
system.ruby.L1Cache_Controller.MMT.Complete_L2_to_L1::total      2816722                      

---------- End Simulation Statistics   ----------
