Redirecting stdout to /root/anthony/lelec2990-sim/blackscholes/X86_MESI_Three_Level/l2_size/4MB/stdout.txt
Redirecting stderr to /root/anthony/lelec2990-sim/blackscholes/X86_MESI_Three_Level/l2_size/4MB/stderr.txt
gem5 Simulator System.  http://gem5.org
gem5 is copyrighted software; use the --copyright option for details.

gem5 compiled Jun  1 2016 12:08:44
gem5 started Jun  2 2016 00:20:49
gem5 executing on davidof.info.ucl.ac.be, pid 3792932
command line: /root/anthony/gem5/build/X86_MESI_Three_Level/gem5.opt --outdir=/root/anthony/lelec2990-sim/blackscholes/X86_MESI_Three_Level/l2_size/4MB -e --stderr-file=/root/anthony/lelec2990-sim/blackscholes/X86_MESI_Three_Level/l2_size/4MB/stderr.txt -r --stdout-file=/root/anthony/lelec2990-sim/blackscholes/X86_MESI_Three_Level/l2_size/4MB/stdout.txt /root/anthony/gem5/configs/example/fs.py --mem-size 1GB --script /root/anthony/gem5/sim_script --num-cpus 4 --ruby -r 1 --restore-with-cpu timing --l2_size 4MB

Global frequency set at 1000000000000 ticks per second
info: kernel located at: /root/anthony/debian/binaries/vmlinux
      0: rtc: Real-time clock set to Sun Jan  1 00:00:00 2012
**** REAL SIMULATION ****
info: Entering event queue @ 52018073674000.  Starting simulation...
Exiting @ tick 52574945298001 because m5_exit instruction encountered
