
---------- Begin Simulation Statistics ----------
sim_seconds                                  2.068386                       # Number of seconds simulated
sim_ticks                                2068385638000                       # Number of ticks simulated
final_tick                               54409042051001                       # Number of ticks from beginning of simulation (restored from checkpoints and never reset)
sim_freq                                 1000000000000                       # Frequency of simulated ticks
host_inst_rate                                 102991                       # Simulator instruction rate (inst/s)
host_op_rate                                   153539                       # Simulator op (including micro ops) rate (op/s)
host_tick_rate                              293532938                       # Simulator tick rate (ticks/s)
host_mem_usage                                1815888                       # Number of bytes of host memory used
host_seconds                                  7046.52                       # Real time elapsed on the host
sim_insts                                   725724835                       # Number of instructions simulated
sim_ops                                    1081916450                       # Number of ops (including micro ops) simulated
system.voltage_domain.voltage                       1                       # Voltage in Volts
system.clk_domain.clock                          1000                       # Clock period in ticks
system.mem_ctrls.bytes_read::ruby.dir_cntrl0    476823296                       # Number of bytes read from this memory
system.mem_ctrls.bytes_read::total          476823296                       # Number of bytes read from this memory
system.mem_ctrls.bytes_written::ruby.dir_cntrl0    270258944                       # Number of bytes written to this memory
system.mem_ctrls.bytes_written::total       270258944                       # Number of bytes written to this memory
system.mem_ctrls.num_reads::ruby.dir_cntrl0      7450364                       # Number of read requests responded to by this memory
system.mem_ctrls.num_reads::total             7450364                       # Number of read requests responded to by this memory
system.mem_ctrls.num_writes::ruby.dir_cntrl0      4222796                       # Number of write requests responded to by this memory
system.mem_ctrls.num_writes::total            4222796                       # Number of write requests responded to by this memory
system.mem_ctrls.bw_read::ruby.dir_cntrl0    230529205                       # Total read bandwidth from this memory (bytes/s)
system.mem_ctrls.bw_read::total             230529205                       # Total read bandwidth from this memory (bytes/s)
system.mem_ctrls.bw_write::ruby.dir_cntrl0    130661777                       # Write bandwidth from this memory (bytes/s)
system.mem_ctrls.bw_write::total            130661777                       # Write bandwidth from this memory (bytes/s)
system.mem_ctrls.bw_total::ruby.dir_cntrl0    361190982                       # Total bandwidth to/from this memory (bytes/s)
system.mem_ctrls.bw_total::total            361190982                       # Total bandwidth to/from this memory (bytes/s)
system.mem_ctrls.readReqs                     7450364                       # Number of read requests accepted
system.mem_ctrls.writeReqs                    4222796                       # Number of write requests accepted
system.mem_ctrls.readBursts                   7450364                       # Number of DRAM read bursts, including those serviced by the write queue
system.mem_ctrls.writeBursts                  4222796                       # Number of DRAM write bursts, including those merged in the write queue
system.mem_ctrls.bytesReadDRAM              475005824                       # Total number of bytes read from DRAM
system.mem_ctrls.bytesReadWrQ                 1817472                       # Total number of bytes read from write queue
system.mem_ctrls.bytesWritten               270240832                       # Total number of bytes written to DRAM
system.mem_ctrls.bytesReadSys               476823296                       # Total read bytes from the system interface side
system.mem_ctrls.bytesWrittenSys            270258944                       # Total written bytes from the system interface side
system.mem_ctrls.servicedByWrQ                  28398                       # Number of DRAM read bursts serviced by the write queue
system.mem_ctrls.mergedWrBursts                   279                       # Number of DRAM write bursts merged with an existing one
system.mem_ctrls.neitherReadNorWriteReqs            0                       # Number of requests that are neither read nor write
system.mem_ctrls.perBankRdBursts::0            460670                       # Per bank write bursts
system.mem_ctrls.perBankRdBursts::1            442324                       # Per bank write bursts
system.mem_ctrls.perBankRdBursts::2            463349                       # Per bank write bursts
system.mem_ctrls.perBankRdBursts::3            454564                       # Per bank write bursts
system.mem_ctrls.perBankRdBursts::4            528797                       # Per bank write bursts
system.mem_ctrls.perBankRdBursts::5            504264                       # Per bank write bursts
system.mem_ctrls.perBankRdBursts::6            524938                       # Per bank write bursts
system.mem_ctrls.perBankRdBursts::7            470519                       # Per bank write bursts
system.mem_ctrls.perBankRdBursts::8            434040                       # Per bank write bursts
system.mem_ctrls.perBankRdBursts::9            470872                       # Per bank write bursts
system.mem_ctrls.perBankRdBursts::10           427986                       # Per bank write bursts
system.mem_ctrls.perBankRdBursts::11           450908                       # Per bank write bursts
system.mem_ctrls.perBankRdBursts::12           453947                       # Per bank write bursts
system.mem_ctrls.perBankRdBursts::13           414569                       # Per bank write bursts
system.mem_ctrls.perBankRdBursts::14           437998                       # Per bank write bursts
system.mem_ctrls.perBankRdBursts::15           482221                       # Per bank write bursts
system.mem_ctrls.perBankWrBursts::0            252406                       # Per bank write bursts
system.mem_ctrls.perBankWrBursts::1            243626                       # Per bank write bursts
system.mem_ctrls.perBankWrBursts::2            265991                       # Per bank write bursts
system.mem_ctrls.perBankWrBursts::3            254537                       # Per bank write bursts
system.mem_ctrls.perBankWrBursts::4            323925                       # Per bank write bursts
system.mem_ctrls.perBankWrBursts::5            306568                       # Per bank write bursts
system.mem_ctrls.perBankWrBursts::6            323207                       # Per bank write bursts
system.mem_ctrls.perBankWrBursts::7            272039                       # Per bank write bursts
system.mem_ctrls.perBankWrBursts::8            235802                       # Per bank write bursts
system.mem_ctrls.perBankWrBursts::9            271602                       # Per bank write bursts
system.mem_ctrls.perBankWrBursts::10           231036                       # Per bank write bursts
system.mem_ctrls.perBankWrBursts::11           253332                       # Per bank write bursts
system.mem_ctrls.perBankWrBursts::12           256621                       # Per bank write bursts
system.mem_ctrls.perBankWrBursts::13           216508                       # Per bank write bursts
system.mem_ctrls.perBankWrBursts::14           239401                       # Per bank write bursts
system.mem_ctrls.perBankWrBursts::15           275912                       # Per bank write bursts
system.mem_ctrls.numRdRetry                         0                       # Number of times read queue was full causing retry
system.mem_ctrls.numWrRetry                         0                       # Number of times write queue was full causing retry
system.mem_ctrls.totGap                  2068385551000                       # Total gap between requests
system.mem_ctrls.readPktSize::0                     0                       # Read request sizes (log2)
system.mem_ctrls.readPktSize::1                     0                       # Read request sizes (log2)
system.mem_ctrls.readPktSize::2                     0                       # Read request sizes (log2)
system.mem_ctrls.readPktSize::3                     0                       # Read request sizes (log2)
system.mem_ctrls.readPktSize::4                     0                       # Read request sizes (log2)
system.mem_ctrls.readPktSize::5                     0                       # Read request sizes (log2)
system.mem_ctrls.readPktSize::6               7450364                       # Read request sizes (log2)
system.mem_ctrls.writePktSize::0                    0                       # Write request sizes (log2)
system.mem_ctrls.writePktSize::1                    0                       # Write request sizes (log2)
system.mem_ctrls.writePktSize::2                    0                       # Write request sizes (log2)
system.mem_ctrls.writePktSize::3                    0                       # Write request sizes (log2)
system.mem_ctrls.writePktSize::4                    0                       # Write request sizes (log2)
system.mem_ctrls.writePktSize::5                    0                       # Write request sizes (log2)
system.mem_ctrls.writePktSize::6              4222796                       # Write request sizes (log2)
system.mem_ctrls.rdQLenPdf::0                 7391858                       # What read queue length does an incoming req see
system.mem_ctrls.rdQLenPdf::1                   30100                       # What read queue length does an incoming req see
system.mem_ctrls.rdQLenPdf::2                       8                       # What read queue length does an incoming req see
system.mem_ctrls.rdQLenPdf::3                       0                       # What read queue length does an incoming req see
system.mem_ctrls.rdQLenPdf::4                       0                       # What read queue length does an incoming req see
system.mem_ctrls.rdQLenPdf::5                       0                       # What read queue length does an incoming req see
system.mem_ctrls.rdQLenPdf::6                       0                       # What read queue length does an incoming req see
system.mem_ctrls.rdQLenPdf::7                       0                       # What read queue length does an incoming req see
system.mem_ctrls.rdQLenPdf::8                       0                       # What read queue length does an incoming req see
system.mem_ctrls.rdQLenPdf::9                       0                       # What read queue length does an incoming req see
system.mem_ctrls.rdQLenPdf::10                      0                       # What read queue length does an incoming req see
system.mem_ctrls.rdQLenPdf::11                      0                       # What read queue length does an incoming req see
system.mem_ctrls.rdQLenPdf::12                      0                       # What read queue length does an incoming req see
system.mem_ctrls.rdQLenPdf::13                      0                       # What read queue length does an incoming req see
system.mem_ctrls.rdQLenPdf::14                      0                       # What read queue length does an incoming req see
system.mem_ctrls.rdQLenPdf::15                      0                       # What read queue length does an incoming req see
system.mem_ctrls.rdQLenPdf::16                      0                       # What read queue length does an incoming req see
system.mem_ctrls.rdQLenPdf::17                      0                       # What read queue length does an incoming req see
system.mem_ctrls.rdQLenPdf::18                      0                       # What read queue length does an incoming req see
system.mem_ctrls.rdQLenPdf::19                      0                       # What read queue length does an incoming req see
system.mem_ctrls.rdQLenPdf::20                      0                       # What read queue length does an incoming req see
system.mem_ctrls.rdQLenPdf::21                      0                       # What read queue length does an incoming req see
system.mem_ctrls.rdQLenPdf::22                      0                       # What read queue length does an incoming req see
system.mem_ctrls.rdQLenPdf::23                      0                       # What read queue length does an incoming req see
system.mem_ctrls.rdQLenPdf::24                      0                       # What read queue length does an incoming req see
system.mem_ctrls.rdQLenPdf::25                      0                       # What read queue length does an incoming req see
system.mem_ctrls.rdQLenPdf::26                      0                       # What read queue length does an incoming req see
system.mem_ctrls.rdQLenPdf::27                      0                       # What read queue length does an incoming req see
system.mem_ctrls.rdQLenPdf::28                      0                       # What read queue length does an incoming req see
system.mem_ctrls.rdQLenPdf::29                      0                       # What read queue length does an incoming req see
system.mem_ctrls.rdQLenPdf::30                      0                       # What read queue length does an incoming req see
system.mem_ctrls.rdQLenPdf::31                      0                       # What read queue length does an incoming req see
system.mem_ctrls.wrQLenPdf::0                       0                       # What write queue length does an incoming req see
system.mem_ctrls.wrQLenPdf::1                       0                       # What write queue length does an incoming req see
system.mem_ctrls.wrQLenPdf::2                       0                       # What write queue length does an incoming req see
system.mem_ctrls.wrQLenPdf::3                       0                       # What write queue length does an incoming req see
system.mem_ctrls.wrQLenPdf::4                       0                       # What write queue length does an incoming req see
system.mem_ctrls.wrQLenPdf::5                       0                       # What write queue length does an incoming req see
system.mem_ctrls.wrQLenPdf::6                       0                       # What write queue length does an incoming req see
system.mem_ctrls.wrQLenPdf::7                       0                       # What write queue length does an incoming req see
system.mem_ctrls.wrQLenPdf::8                       0                       # What write queue length does an incoming req see
system.mem_ctrls.wrQLenPdf::9                       0                       # What write queue length does an incoming req see
system.mem_ctrls.wrQLenPdf::10                      0                       # What write queue length does an incoming req see
system.mem_ctrls.wrQLenPdf::11                      0                       # What write queue length does an incoming req see
system.mem_ctrls.wrQLenPdf::12                      0                       # What write queue length does an incoming req see
system.mem_ctrls.wrQLenPdf::13                      0                       # What write queue length does an incoming req see
system.mem_ctrls.wrQLenPdf::14                      0                       # What write queue length does an incoming req see
system.mem_ctrls.wrQLenPdf::15                   2774                       # What write queue length does an incoming req see
system.mem_ctrls.wrQLenPdf::16                   3765                       # What write queue length does an incoming req see
system.mem_ctrls.wrQLenPdf::17                 258523                       # What write queue length does an incoming req see
system.mem_ctrls.wrQLenPdf::18                 263999                       # What write queue length does an incoming req see
system.mem_ctrls.wrQLenPdf::19                 264160                       # What write queue length does an incoming req see
system.mem_ctrls.wrQLenPdf::20                 264231                       # What write queue length does an incoming req see
system.mem_ctrls.wrQLenPdf::21                 264116                       # What write queue length does an incoming req see
system.mem_ctrls.wrQLenPdf::22                 263998                       # What write queue length does an incoming req see
system.mem_ctrls.wrQLenPdf::23                 263868                       # What write queue length does an incoming req see
system.mem_ctrls.wrQLenPdf::24                 263829                       # What write queue length does an incoming req see
system.mem_ctrls.wrQLenPdf::25                 263774                       # What write queue length does an incoming req see
system.mem_ctrls.wrQLenPdf::26                 263687                       # What write queue length does an incoming req see
system.mem_ctrls.wrQLenPdf::27                 263688                       # What write queue length does an incoming req see
system.mem_ctrls.wrQLenPdf::28                 263671                       # What write queue length does an incoming req see
system.mem_ctrls.wrQLenPdf::29                 263644                       # What write queue length does an incoming req see
system.mem_ctrls.wrQLenPdf::30                 263628                       # What write queue length does an incoming req see
system.mem_ctrls.wrQLenPdf::31                 263586                       # What write queue length does an incoming req see
system.mem_ctrls.wrQLenPdf::32                 263531                       # What write queue length does an incoming req see
system.mem_ctrls.wrQLenPdf::33                     45                       # What write queue length does an incoming req see
system.mem_ctrls.wrQLenPdf::34                      0                       # What write queue length does an incoming req see
system.mem_ctrls.wrQLenPdf::35                      0                       # What write queue length does an incoming req see
system.mem_ctrls.wrQLenPdf::36                      0                       # What write queue length does an incoming req see
system.mem_ctrls.wrQLenPdf::37                      0                       # What write queue length does an incoming req see
system.mem_ctrls.wrQLenPdf::38                      0                       # What write queue length does an incoming req see
system.mem_ctrls.wrQLenPdf::39                      0                       # What write queue length does an incoming req see
system.mem_ctrls.wrQLenPdf::40                      0                       # What write queue length does an incoming req see
system.mem_ctrls.wrQLenPdf::41                      0                       # What write queue length does an incoming req see
system.mem_ctrls.wrQLenPdf::42                      0                       # What write queue length does an incoming req see
system.mem_ctrls.wrQLenPdf::43                      0                       # What write queue length does an incoming req see
system.mem_ctrls.wrQLenPdf::44                      0                       # What write queue length does an incoming req see
system.mem_ctrls.wrQLenPdf::45                      0                       # What write queue length does an incoming req see
system.mem_ctrls.wrQLenPdf::46                      0                       # What write queue length does an incoming req see
system.mem_ctrls.wrQLenPdf::47                      0                       # What write queue length does an incoming req see
system.mem_ctrls.wrQLenPdf::48                      0                       # What write queue length does an incoming req see
system.mem_ctrls.wrQLenPdf::49                      0                       # What write queue length does an incoming req see
system.mem_ctrls.wrQLenPdf::50                      0                       # What write queue length does an incoming req see
system.mem_ctrls.wrQLenPdf::51                      0                       # What write queue length does an incoming req see
system.mem_ctrls.wrQLenPdf::52                      0                       # What write queue length does an incoming req see
system.mem_ctrls.wrQLenPdf::53                      0                       # What write queue length does an incoming req see
system.mem_ctrls.wrQLenPdf::54                      0                       # What write queue length does an incoming req see
system.mem_ctrls.wrQLenPdf::55                      0                       # What write queue length does an incoming req see
system.mem_ctrls.wrQLenPdf::56                      0                       # What write queue length does an incoming req see
system.mem_ctrls.wrQLenPdf::57                      0                       # What write queue length does an incoming req see
system.mem_ctrls.wrQLenPdf::58                      0                       # What write queue length does an incoming req see
system.mem_ctrls.wrQLenPdf::59                      0                       # What write queue length does an incoming req see
system.mem_ctrls.wrQLenPdf::60                      0                       # What write queue length does an incoming req see
system.mem_ctrls.wrQLenPdf::61                      0                       # What write queue length does an incoming req see
system.mem_ctrls.wrQLenPdf::62                      0                       # What write queue length does an incoming req see
system.mem_ctrls.wrQLenPdf::63                      0                       # What write queue length does an incoming req see
system.mem_ctrls.bytesPerActivate::samples      6995753                       # Bytes accessed per row activation
system.mem_ctrls.bytesPerActivate::mean    106.528459                       # Bytes accessed per row activation
system.mem_ctrls.bytesPerActivate::gmean    77.715146                       # Bytes accessed per row activation
system.mem_ctrls.bytesPerActivate::stdev   160.187091                       # Bytes accessed per row activation
system.mem_ctrls.bytesPerActivate::0-127      6097119     87.15%     87.15% # Bytes accessed per row activation
system.mem_ctrls.bytesPerActivate::128-255       417123      5.96%     93.12% # Bytes accessed per row activation
system.mem_ctrls.bytesPerActivate::256-383       146039      2.09%     95.20% # Bytes accessed per row activation
system.mem_ctrls.bytesPerActivate::384-511        84060      1.20%     96.41% # Bytes accessed per row activation
system.mem_ctrls.bytesPerActivate::512-639        44936      0.64%     97.05% # Bytes accessed per row activation
system.mem_ctrls.bytesPerActivate::640-767        29136      0.42%     97.47% # Bytes accessed per row activation
system.mem_ctrls.bytesPerActivate::768-895        23583      0.34%     97.80% # Bytes accessed per row activation
system.mem_ctrls.bytesPerActivate::896-1023        22285      0.32%     98.12% # Bytes accessed per row activation
system.mem_ctrls.bytesPerActivate::1024-1151       131472      1.88%    100.00% # Bytes accessed per row activation
system.mem_ctrls.bytesPerActivate::total      6995753                       # Bytes accessed per row activation
system.mem_ctrls.rdPerTurnAround::samples       263464                       # Reads before turning the bus around for writes
system.mem_ctrls.rdPerTurnAround::mean      28.170744                       # Reads before turning the bus around for writes
system.mem_ctrls.rdPerTurnAround::gmean     21.882430                       # Reads before turning the bus around for writes
system.mem_ctrls.rdPerTurnAround::stdev    219.014012                       # Reads before turning the bus around for writes
system.mem_ctrls.rdPerTurnAround::0-1023       263164     99.89%     99.89% # Reads before turning the bus around for writes
system.mem_ctrls.rdPerTurnAround::1024-2047           80      0.03%     99.92% # Reads before turning the bus around for writes
system.mem_ctrls.rdPerTurnAround::2048-3071           79      0.03%     99.95% # Reads before turning the bus around for writes
system.mem_ctrls.rdPerTurnAround::3072-4095           31      0.01%     99.96% # Reads before turning the bus around for writes
system.mem_ctrls.rdPerTurnAround::4096-5119           30      0.01%     99.97% # Reads before turning the bus around for writes
system.mem_ctrls.rdPerTurnAround::5120-6143           15      0.01%     99.98% # Reads before turning the bus around for writes
system.mem_ctrls.rdPerTurnAround::6144-7167           11      0.00%     99.98% # Reads before turning the bus around for writes
system.mem_ctrls.rdPerTurnAround::7168-8191            9      0.00%     99.98% # Reads before turning the bus around for writes
system.mem_ctrls.rdPerTurnAround::8192-9215            2      0.00%     99.98% # Reads before turning the bus around for writes
system.mem_ctrls.rdPerTurnAround::9216-10239            4      0.00%     99.99% # Reads before turning the bus around for writes
system.mem_ctrls.rdPerTurnAround::10240-11263            5      0.00%     99.99% # Reads before turning the bus around for writes
system.mem_ctrls.rdPerTurnAround::11264-12287            2      0.00%     99.99% # Reads before turning the bus around for writes
system.mem_ctrls.rdPerTurnAround::12288-13311            4      0.00%     99.99% # Reads before turning the bus around for writes
system.mem_ctrls.rdPerTurnAround::13312-14335            3      0.00%     99.99% # Reads before turning the bus around for writes
system.mem_ctrls.rdPerTurnAround::14336-15359            6      0.00%     99.99% # Reads before turning the bus around for writes
system.mem_ctrls.rdPerTurnAround::15360-16383            3      0.00%     99.99% # Reads before turning the bus around for writes
system.mem_ctrls.rdPerTurnAround::16384-17407           10      0.00%    100.00% # Reads before turning the bus around for writes
system.mem_ctrls.rdPerTurnAround::17408-18431            4      0.00%    100.00% # Reads before turning the bus around for writes
system.mem_ctrls.rdPerTurnAround::18432-19455            1      0.00%    100.00% # Reads before turning the bus around for writes
system.mem_ctrls.rdPerTurnAround::19456-20479            1      0.00%    100.00% # Reads before turning the bus around for writes
system.mem_ctrls.rdPerTurnAround::total        263464                       # Reads before turning the bus around for writes
system.mem_ctrls.wrPerTurnAround::samples       263464                       # Writes before turning the bus around for reads
system.mem_ctrls.wrPerTurnAround::mean      16.026907                       # Writes before turning the bus around for reads
system.mem_ctrls.wrPerTurnAround::gmean     16.025426                       # Writes before turning the bus around for reads
system.mem_ctrls.wrPerTurnAround::stdev      0.226366                       # Writes before turning the bus around for reads
system.mem_ctrls.wrPerTurnAround::16           259613     98.54%     98.54% # Writes before turning the bus around for reads
system.mem_ctrls.wrPerTurnAround::17              676      0.26%     98.79% # Writes before turning the bus around for reads
system.mem_ctrls.wrPerTurnAround::18             3112      1.18%     99.98% # Writes before turning the bus around for reads
system.mem_ctrls.wrPerTurnAround::19               63      0.02%    100.00% # Writes before turning the bus around for reads
system.mem_ctrls.wrPerTurnAround::total        263464                       # Writes before turning the bus around for reads
system.mem_ctrls.totQLat                 169419072882                       # Total ticks spent queuing
system.mem_ctrls.totMemAccLat            308580935382                       # Total ticks spent from burst creation until serviced by the DRAM
system.mem_ctrls.totBusLat                37109830000                       # Total ticks spent in databus transfers
system.mem_ctrls.avgQLat                     22826.71                       # Average queueing delay per DRAM burst
system.mem_ctrls.avgBusLat                    5000.00                       # Average bus latency per DRAM burst
system.mem_ctrls.avgMemAccLat                41576.71                       # Average memory access latency per DRAM burst
system.mem_ctrls.avgRdBW                       229.65                       # Average DRAM read bandwidth in MiByte/s
system.mem_ctrls.avgWrBW                       130.65                       # Average achieved write bandwidth in MiByte/s
system.mem_ctrls.avgRdBWSys                    230.53                       # Average system read bandwidth in MiByte/s
system.mem_ctrls.avgWrBWSys                    130.66                       # Average system write bandwidth in MiByte/s
system.mem_ctrls.peakBW                      12800.00                       # Theoretical peak bandwidth in MiByte/s
system.mem_ctrls.busUtil                         2.81                       # Data bus utilization in percentage
system.mem_ctrls.busUtilRead                     1.79                       # Data bus utilization in percentage for reads
system.mem_ctrls.busUtilWrite                    1.02                       # Data bus utilization in percentage for writes
system.mem_ctrls.avgRdQLen                       1.00                       # Average read queue length when enqueuing
system.mem_ctrls.avgWrQLen                      25.70                       # Average write queue length when enqueuing
system.mem_ctrls.readRowHits                  3607236                       # Number of row buffer hits during reads
system.mem_ctrls.writeRowHits                 1041489                       # Number of row buffer hits during writes
system.mem_ctrls.readRowHitRate                 48.60                       # Row buffer hit rate for reads
system.mem_ctrls.writeRowHitRate                24.67                       # Row buffer hit rate for writes
system.mem_ctrls.avgGap                     177191.57                       # Average gap between requests
system.mem_ctrls.pageHitRate                    39.92                       # Row buffer hit rate, read and write combined
system.mem_ctrls_0.actEnergy              28445868360                       # Energy for activate commands per rank (pJ)
system.mem_ctrls_0.preEnergy              15521059125                       # Energy for precharge commands per rank (pJ)
system.mem_ctrls_0.readEnergy             30093000600                       # Energy for read commands per rank (pJ)
system.mem_ctrls_0.writeEnergy            14530609440                       # Energy for write commands per rank (pJ)
system.mem_ctrls_0.refreshEnergy         135340530000                       # Energy for refresh commands per rank (pJ)
system.mem_ctrls_0.actBackEnergy         778378824450                       # Energy for active background per rank (pJ)
system.mem_ctrls_0.preBackEnergy         560481182250                       # Energy for precharge background per rank (pJ)
system.mem_ctrls_0.totalEnergy           1562791074225                       # Total energy per rank (pJ)
system.mem_ctrls_0.averagePower            754.200558                       # Core power per rank (mW)
system.mem_ctrls_0.memoryStateTime::IDLE 925322292754                       # Time in different power states
system.mem_ctrls_0.memoryStateTime::REF   69067960000                       # Time in different power states
system.mem_ctrls_0.memoryStateTime::PRE_PDN            0                       # Time in different power states
system.mem_ctrls_0.memoryStateTime::ACT  1073995634246                       # Time in different power states
system.mem_ctrls_0.memoryStateTime::ACT_PDN            0                       # Time in different power states
system.mem_ctrls_1.actEnergy              24471561240                       # Energy for activate commands per rank (pJ)
system.mem_ctrls_1.preEnergy              13352538375                       # Energy for precharge commands per rank (pJ)
system.mem_ctrls_1.readEnergy             27920911200                       # Energy for read commands per rank (pJ)
system.mem_ctrls_1.writeEnergy            12831793200                       # Energy for write commands per rank (pJ)
system.mem_ctrls_1.refreshEnergy         135340530000                       # Energy for refresh commands per rank (pJ)
system.mem_ctrls_1.actBackEnergy         771126619545                       # Energy for active background per rank (pJ)
system.mem_ctrls_1.preBackEnergy         566842765500                       # Energy for precharge background per rank (pJ)
system.mem_ctrls_1.totalEnergy           1551886719060                       # Total energy per rank (pJ)
system.mem_ctrls_1.averagePower            748.938133                       # Core power per rank (mW)
system.mem_ctrls_1.memoryStateTime::IDLE 935736968750                       # Time in different power states
system.mem_ctrls_1.memoryStateTime::REF   69067960000                       # Time in different power states
system.mem_ctrls_1.memoryStateTime::PRE_PDN            0                       # Time in different power states
system.mem_ctrls_1.memoryStateTime::ACT  1063581902500                       # Time in different power states
system.mem_ctrls_1.memoryStateTime::ACT_PDN            0                       # Time in different power states
system.cpu_voltage_domain.voltage                   1                       # Voltage in Volts
system.cpu_clk_domain.clock                       500                       # Clock period in ticks
system.cpu0.apic_clk_domain.clock                8000                       # Clock period in ticks
system.cpu0.numCycles                      4140791492                       # number of cpu cycles simulated
system.cpu0.numWorkItemsStarted                     0                       # number of work items this cpu started
system.cpu0.numWorkItemsCompleted                   0                       # number of work items this cpu completed
system.cpu0.kern.inst.arm                           0                       # number of arm instructions executed
system.cpu0.kern.inst.quiesce                       0                       # number of quiesce instructions executed
system.cpu0.committedInsts                    1699086                       # Number of instructions committed
system.cpu0.committedOps                      3693977                       # Number of ops (including micro ops) committed
system.cpu0.num_int_alu_accesses              3614241                       # Number of integer alu accesses
system.cpu0.num_fp_alu_accesses                    39                       # Number of float alu accesses
system.cpu0.num_func_calls                     108640                       # number of times a function call or return occured
system.cpu0.num_conditional_control_insts       244161                       # number of instructions that are conditional controls
system.cpu0.num_int_insts                     3614241                       # number of integer instructions
system.cpu0.num_fp_insts                           39                       # number of float instructions
system.cpu0.num_int_register_reads            7353656                       # number of times the integer registers were read
system.cpu0.num_int_register_writes           2992507                       # number of times the integer registers were written
system.cpu0.num_fp_register_reads                  63                       # number of times the floating registers were read
system.cpu0.num_fp_register_writes                 31                       # number of times the floating registers were written
system.cpu0.num_cc_register_reads             2036222                       # number of times the CC registers were read
system.cpu0.num_cc_register_writes            1104463                       # number of times the CC registers were written
system.cpu0.num_mem_refs                       874304                       # number of memory refs
system.cpu0.num_load_insts                     538430                       # Number of load instructions
system.cpu0.num_store_insts                    335874                       # Number of store instructions
system.cpu0.num_idle_cycles              4127575956.286790                       # Number of idle cycles
system.cpu0.num_busy_cycles              13215535.713210                       # Number of busy cycles
system.cpu0.not_idle_fraction                0.003192                       # Percentage of non-idle cycles
system.cpu0.idle_fraction                    0.996808                       # Percentage of idle cycles
system.cpu0.Branches                           386060                       # Number of branches fetched
system.cpu0.op_class::No_OpClass                64036      1.73%      1.73% # Class of executed instruction
system.cpu0.op_class::IntAlu                  2727428     73.83%     75.57% # Class of executed instruction
system.cpu0.op_class::IntMult                    6853      0.19%     75.75% # Class of executed instruction
system.cpu0.op_class::IntDiv                    21349      0.58%     76.33% # Class of executed instruction
system.cpu0.op_class::FloatAdd                     30      0.00%     76.33% # Class of executed instruction
system.cpu0.op_class::FloatCmp                      0      0.00%     76.33% # Class of executed instruction
system.cpu0.op_class::FloatCvt                      0      0.00%     76.33% # Class of executed instruction
system.cpu0.op_class::FloatMult                     0      0.00%     76.33% # Class of executed instruction
system.cpu0.op_class::FloatDiv                      0      0.00%     76.33% # Class of executed instruction
system.cpu0.op_class::FloatSqrt                     0      0.00%     76.33% # Class of executed instruction
system.cpu0.op_class::SimdAdd                       0      0.00%     76.33% # Class of executed instruction
system.cpu0.op_class::SimdAddAcc                    0      0.00%     76.33% # Class of executed instruction
system.cpu0.op_class::SimdAlu                       0      0.00%     76.33% # Class of executed instruction
system.cpu0.op_class::SimdCmp                       0      0.00%     76.33% # Class of executed instruction
system.cpu0.op_class::SimdCvt                       0      0.00%     76.33% # Class of executed instruction
system.cpu0.op_class::SimdMisc                      0      0.00%     76.33% # Class of executed instruction
system.cpu0.op_class::SimdMult                      0      0.00%     76.33% # Class of executed instruction
system.cpu0.op_class::SimdMultAcc                   0      0.00%     76.33% # Class of executed instruction
system.cpu0.op_class::SimdShift                     0      0.00%     76.33% # Class of executed instruction
system.cpu0.op_class::SimdShiftAcc                  0      0.00%     76.33% # Class of executed instruction
system.cpu0.op_class::SimdSqrt                      0      0.00%     76.33% # Class of executed instruction
system.cpu0.op_class::SimdFloatAdd                  0      0.00%     76.33% # Class of executed instruction
system.cpu0.op_class::SimdFloatAlu                  0      0.00%     76.33% # Class of executed instruction
system.cpu0.op_class::SimdFloatCmp                  0      0.00%     76.33% # Class of executed instruction
system.cpu0.op_class::SimdFloatCvt                  0      0.00%     76.33% # Class of executed instruction
system.cpu0.op_class::SimdFloatDiv                  0      0.00%     76.33% # Class of executed instruction
system.cpu0.op_class::SimdFloatMisc                 0      0.00%     76.33% # Class of executed instruction
system.cpu0.op_class::SimdFloatMult                 0      0.00%     76.33% # Class of executed instruction
system.cpu0.op_class::SimdFloatMultAcc              0      0.00%     76.33% # Class of executed instruction
system.cpu0.op_class::SimdFloatSqrt                 0      0.00%     76.33% # Class of executed instruction
system.cpu0.op_class::MemRead                  538430     14.58%     90.91% # Class of executed instruction
system.cpu0.op_class::MemWrite                 335874      9.09%    100.00% # Class of executed instruction
system.cpu0.op_class::IprAccess                     0      0.00%    100.00% # Class of executed instruction
system.cpu0.op_class::InstPrefetch                  0      0.00%    100.00% # Class of executed instruction
system.cpu0.op_class::total                   3694000                       # Class of executed instruction
system.cpu1.apic_clk_domain.clock                8000                       # Clock period in ticks
system.cpu1.numCycles                      4139017878                       # number of cpu cycles simulated
system.cpu1.numWorkItemsStarted                     0                       # number of work items this cpu started
system.cpu1.numWorkItemsCompleted                   0                       # number of work items this cpu completed
system.cpu1.kern.inst.arm                           0                       # number of arm instructions executed
system.cpu1.kern.inst.quiesce                       0                       # number of quiesce instructions executed
system.cpu1.committedInsts                  717246445                       # Number of instructions committed
system.cpu1.committedOps                   1064605483                       # Number of ops (including micro ops) committed
system.cpu1.num_int_alu_accesses            464112299                       # Number of integer alu accesses
system.cpu1.num_fp_alu_accesses             708837958                       # Number of float alu accesses
system.cpu1.num_func_calls                     906218                       # number of times a function call or return occured
system.cpu1.num_conditional_control_insts     10845566                       # number of instructions that are conditional controls
system.cpu1.num_int_insts                   464112299                       # number of integer instructions
system.cpu1.num_fp_insts                    708837958                       # number of float instructions
system.cpu1.num_int_register_reads          972324300                       # number of times the integer registers were read
system.cpu1.num_int_register_writes         343952474                       # number of times the integer registers were written
system.cpu1.num_fp_register_reads          1593836506                       # number of times the floating registers were read
system.cpu1.num_fp_register_writes          654311894                       # number of times the floating registers were written
system.cpu1.num_cc_register_reads           111737601                       # number of times the CC registers were read
system.cpu1.num_cc_register_writes          201691623                       # number of times the CC registers were written
system.cpu1.num_mem_refs                    129403901                       # number of memory refs
system.cpu1.num_load_insts                   75476650                       # Number of load instructions
system.cpu1.num_store_insts                  53927251                       # Number of store instructions
system.cpu1.num_idle_cycles              14457622.396663                       # Number of idle cycles
system.cpu1.num_busy_cycles              4124560255.603337                       # Number of busy cycles
system.cpu1.not_idle_fraction                0.996507                       # Percentage of non-idle cycles
system.cpu1.idle_fraction                    0.003493                       # Percentage of idle cycles
system.cpu1.Branches                         12044550                       # Number of branches fetched
system.cpu1.op_class::No_OpClass               314790      0.03%      0.03% # Class of executed instruction
system.cpu1.op_class::IntAlu                431494504     40.53%     40.56% # Class of executed instruction
system.cpu1.op_class::IntMult                   90036      0.01%     40.57% # Class of executed instruction
system.cpu1.op_class::IntDiv                     1889      0.00%     40.57% # Class of executed instruction
system.cpu1.op_class::FloatAdd              503316886     47.28%     87.85% # Class of executed instruction
system.cpu1.op_class::FloatCmp                      0      0.00%     87.85% # Class of executed instruction
system.cpu1.op_class::FloatCvt                      0      0.00%     87.85% # Class of executed instruction
system.cpu1.op_class::FloatMult                     0      0.00%     87.85% # Class of executed instruction
system.cpu1.op_class::FloatDiv                      0      0.00%     87.85% # Class of executed instruction
system.cpu1.op_class::FloatSqrt                     0      0.00%     87.85% # Class of executed instruction
system.cpu1.op_class::SimdAdd                       0      0.00%     87.85% # Class of executed instruction
system.cpu1.op_class::SimdAddAcc                    0      0.00%     87.85% # Class of executed instruction
system.cpu1.op_class::SimdAlu                       0      0.00%     87.85% # Class of executed instruction
system.cpu1.op_class::SimdCmp                       0      0.00%     87.85% # Class of executed instruction
system.cpu1.op_class::SimdCvt                       0      0.00%     87.85% # Class of executed instruction
system.cpu1.op_class::SimdMisc                      0      0.00%     87.85% # Class of executed instruction
system.cpu1.op_class::SimdMult                      0      0.00%     87.85% # Class of executed instruction
system.cpu1.op_class::SimdMultAcc                   0      0.00%     87.85% # Class of executed instruction
system.cpu1.op_class::SimdShift                     0      0.00%     87.85% # Class of executed instruction
system.cpu1.op_class::SimdShiftAcc                  0      0.00%     87.85% # Class of executed instruction
system.cpu1.op_class::SimdSqrt                      0      0.00%     87.85% # Class of executed instruction
system.cpu1.op_class::SimdFloatAdd                  0      0.00%     87.85% # Class of executed instruction
system.cpu1.op_class::SimdFloatAlu                  0      0.00%     87.85% # Class of executed instruction
system.cpu1.op_class::SimdFloatCmp                  0      0.00%     87.85% # Class of executed instruction
system.cpu1.op_class::SimdFloatCvt                  0      0.00%     87.85% # Class of executed instruction
system.cpu1.op_class::SimdFloatDiv                  0      0.00%     87.85% # Class of executed instruction
system.cpu1.op_class::SimdFloatMisc                 0      0.00%     87.85% # Class of executed instruction
system.cpu1.op_class::SimdFloatMult                 0      0.00%     87.85% # Class of executed instruction
system.cpu1.op_class::SimdFloatMultAcc              0      0.00%     87.85% # Class of executed instruction
system.cpu1.op_class::SimdFloatSqrt                 0      0.00%     87.85% # Class of executed instruction
system.cpu1.op_class::MemRead                75476650      7.09%     94.93% # Class of executed instruction
system.cpu1.op_class::MemWrite               53927251      5.07%    100.00% # Class of executed instruction
system.cpu1.op_class::IprAccess                     0      0.00%    100.00% # Class of executed instruction
system.cpu1.op_class::InstPrefetch                  0      0.00%    100.00% # Class of executed instruction
system.cpu1.op_class::total                1064622006                       # Class of executed instruction
system.cpu2.apic_clk_domain.clock                8000                       # Clock period in ticks
system.cpu2.numCycles                      4135343245                       # number of cpu cycles simulated
system.cpu2.numWorkItemsStarted                     0                       # number of work items this cpu started
system.cpu2.numWorkItemsCompleted                   0                       # number of work items this cpu completed
system.cpu2.kern.inst.arm                           0                       # number of arm instructions executed
system.cpu2.kern.inst.quiesce                       0                       # number of quiesce instructions executed
system.cpu2.committedInsts                    1437670                       # Number of instructions committed
system.cpu2.committedOps                      3111433                       # Number of ops (including micro ops) committed
system.cpu2.num_int_alu_accesses              3042224                       # Number of integer alu accesses
system.cpu2.num_fp_alu_accesses                     0                       # Number of float alu accesses
system.cpu2.num_func_calls                      85760                       # number of times a function call or return occured
system.cpu2.num_conditional_control_insts       218830                       # number of instructions that are conditional controls
system.cpu2.num_int_insts                     3042224                       # number of integer instructions
system.cpu2.num_fp_insts                            0                       # number of float instructions
system.cpu2.num_int_register_reads            6182389                       # number of times the integer registers were read
system.cpu2.num_int_register_writes           2526652                       # number of times the integer registers were written
system.cpu2.num_fp_register_reads                   0                       # number of times the floating registers were read
system.cpu2.num_fp_register_writes                  0                       # number of times the floating registers were written
system.cpu2.num_cc_register_reads             1756301                       # number of times the CC registers were read
system.cpu2.num_cc_register_writes             918070                       # number of times the CC registers were written
system.cpu2.num_mem_refs                       740193                       # number of memory refs
system.cpu2.num_load_insts                     460480                       # Number of load instructions
system.cpu2.num_store_insts                    279713                       # Number of store instructions
system.cpu2.num_idle_cycles              4123846642.046611                       # Number of idle cycles
system.cpu2.num_busy_cycles              11496602.953389                       # Number of busy cycles
system.cpu2.not_idle_fraction                0.002780                       # Percentage of non-idle cycles
system.cpu2.idle_fraction                    0.997220                       # Percentage of idle cycles
system.cpu2.Branches                           332606                       # Number of branches fetched
system.cpu2.op_class::No_OpClass                59392      1.91%      1.91% # Class of executed instruction
system.cpu2.op_class::IntAlu                  2284462     73.42%     75.33% # Class of executed instruction
system.cpu2.op_class::IntMult                    6229      0.20%     75.53% # Class of executed instruction
system.cpu2.op_class::IntDiv                    21161      0.68%     76.21% # Class of executed instruction
system.cpu2.op_class::FloatAdd                      0      0.00%     76.21% # Class of executed instruction
system.cpu2.op_class::FloatCmp                      0      0.00%     76.21% # Class of executed instruction
system.cpu2.op_class::FloatCvt                      0      0.00%     76.21% # Class of executed instruction
system.cpu2.op_class::FloatMult                     0      0.00%     76.21% # Class of executed instruction
system.cpu2.op_class::FloatDiv                      0      0.00%     76.21% # Class of executed instruction
system.cpu2.op_class::FloatSqrt                     0      0.00%     76.21% # Class of executed instruction
system.cpu2.op_class::SimdAdd                       0      0.00%     76.21% # Class of executed instruction
system.cpu2.op_class::SimdAddAcc                    0      0.00%     76.21% # Class of executed instruction
system.cpu2.op_class::SimdAlu                       0      0.00%     76.21% # Class of executed instruction
system.cpu2.op_class::SimdCmp                       0      0.00%     76.21% # Class of executed instruction
system.cpu2.op_class::SimdCvt                       0      0.00%     76.21% # Class of executed instruction
system.cpu2.op_class::SimdMisc                      0      0.00%     76.21% # Class of executed instruction
system.cpu2.op_class::SimdMult                      0      0.00%     76.21% # Class of executed instruction
system.cpu2.op_class::SimdMultAcc                   0      0.00%     76.21% # Class of executed instruction
system.cpu2.op_class::SimdShift                     0      0.00%     76.21% # Class of executed instruction
system.cpu2.op_class::SimdShiftAcc                  0      0.00%     76.21% # Class of executed instruction
system.cpu2.op_class::SimdSqrt                      0      0.00%     76.21% # Class of executed instruction
system.cpu2.op_class::SimdFloatAdd                  0      0.00%     76.21% # Class of executed instruction
system.cpu2.op_class::SimdFloatAlu                  0      0.00%     76.21% # Class of executed instruction
system.cpu2.op_class::SimdFloatCmp                  0      0.00%     76.21% # Class of executed instruction
system.cpu2.op_class::SimdFloatCvt                  0      0.00%     76.21% # Class of executed instruction
system.cpu2.op_class::SimdFloatDiv                  0      0.00%     76.21% # Class of executed instruction
system.cpu2.op_class::SimdFloatMisc                 0      0.00%     76.21% # Class of executed instruction
system.cpu2.op_class::SimdFloatMult                 0      0.00%     76.21% # Class of executed instruction
system.cpu2.op_class::SimdFloatMultAcc              0      0.00%     76.21% # Class of executed instruction
system.cpu2.op_class::SimdFloatSqrt                 0      0.00%     76.21% # Class of executed instruction
system.cpu2.op_class::MemRead                  460480     14.80%     91.01% # Class of executed instruction
system.cpu2.op_class::MemWrite                 279713      8.99%    100.00% # Class of executed instruction
system.cpu2.op_class::IprAccess                     0      0.00%    100.00% # Class of executed instruction
system.cpu2.op_class::InstPrefetch                  0      0.00%    100.00% # Class of executed instruction
system.cpu2.op_class::total                   3111437                       # Class of executed instruction
system.cpu3.apic_clk_domain.clock                8000                       # Clock period in ticks
system.cpu3.numCycles                      4135949291                       # number of cpu cycles simulated
system.cpu3.numWorkItemsStarted                     0                       # number of work items this cpu started
system.cpu3.numWorkItemsCompleted                   0                       # number of work items this cpu completed
system.cpu3.kern.inst.arm                           0                       # number of arm instructions executed
system.cpu3.kern.inst.quiesce                       0                       # number of quiesce instructions executed
system.cpu3.committedInsts                    4004351                       # Number of instructions committed
system.cpu3.committedOps                      8046177                       # Number of ops (including micro ops) committed
system.cpu3.num_int_alu_accesses              7899457                       # Number of integer alu accesses
system.cpu3.num_fp_alu_accesses                  1778                       # Number of float alu accesses
system.cpu3.num_func_calls                     209742                       # number of times a function call or return occured
system.cpu3.num_conditional_control_insts       672876                       # number of instructions that are conditional controls
system.cpu3.num_int_insts                     7899457                       # number of integer instructions
system.cpu3.num_fp_insts                         1778                       # number of float instructions
system.cpu3.num_int_register_reads           15735036                       # number of times the integer registers were read
system.cpu3.num_int_register_writes           6436482                       # number of times the integer registers were written
system.cpu3.num_fp_register_reads                2988                       # number of times the floating registers were read
system.cpu3.num_fp_register_writes               1416                       # number of times the floating registers were written
system.cpu3.num_cc_register_reads             5064859                       # number of times the CC registers were read
system.cpu3.num_cc_register_writes            2721542                       # number of times the CC registers were written
system.cpu3.num_mem_refs                      1822721                       # number of memory refs
system.cpu3.num_load_insts                    1179939                       # Number of load instructions
system.cpu3.num_store_insts                    642782                       # Number of store instructions
system.cpu3.num_idle_cycles              4111406455.683306                       # Number of idle cycles
system.cpu3.num_busy_cycles              24542835.316695                       # Number of busy cycles
system.cpu3.not_idle_fraction                0.005934                       # Percentage of non-idle cycles
system.cpu3.idle_fraction                    0.994066                       # Percentage of idle cycles
system.cpu3.Branches                           921938                       # Number of branches fetched
system.cpu3.op_class::No_OpClass                63706      0.79%      0.79% # Class of executed instruction
system.cpu3.op_class::IntAlu                  6129592     76.18%     76.97% # Class of executed instruction
system.cpu3.op_class::IntMult                    7293      0.09%     77.06% # Class of executed instruction
system.cpu3.op_class::IntDiv                    21611      0.27%     77.33% # Class of executed instruction
system.cpu3.op_class::FloatAdd                   1344      0.02%     77.35% # Class of executed instruction
system.cpu3.op_class::FloatCmp                      0      0.00%     77.35% # Class of executed instruction
system.cpu3.op_class::FloatCvt                      0      0.00%     77.35% # Class of executed instruction
system.cpu3.op_class::FloatMult                     0      0.00%     77.35% # Class of executed instruction
system.cpu3.op_class::FloatDiv                      0      0.00%     77.35% # Class of executed instruction
system.cpu3.op_class::FloatSqrt                     0      0.00%     77.35% # Class of executed instruction
system.cpu3.op_class::SimdAdd                       0      0.00%     77.35% # Class of executed instruction
system.cpu3.op_class::SimdAddAcc                    0      0.00%     77.35% # Class of executed instruction
system.cpu3.op_class::SimdAlu                       0      0.00%     77.35% # Class of executed instruction
system.cpu3.op_class::SimdCmp                       0      0.00%     77.35% # Class of executed instruction
system.cpu3.op_class::SimdCvt                       0      0.00%     77.35% # Class of executed instruction
system.cpu3.op_class::SimdMisc                      0      0.00%     77.35% # Class of executed instruction
system.cpu3.op_class::SimdMult                      0      0.00%     77.35% # Class of executed instruction
system.cpu3.op_class::SimdMultAcc                   0      0.00%     77.35% # Class of executed instruction
system.cpu3.op_class::SimdShift                     0      0.00%     77.35% # Class of executed instruction
system.cpu3.op_class::SimdShiftAcc                  0      0.00%     77.35% # Class of executed instruction
system.cpu3.op_class::SimdSqrt                      0      0.00%     77.35% # Class of executed instruction
system.cpu3.op_class::SimdFloatAdd                  0      0.00%     77.35% # Class of executed instruction
system.cpu3.op_class::SimdFloatAlu                  0      0.00%     77.35% # Class of executed instruction
system.cpu3.op_class::SimdFloatCmp                  0      0.00%     77.35% # Class of executed instruction
system.cpu3.op_class::SimdFloatCvt                  0      0.00%     77.35% # Class of executed instruction
system.cpu3.op_class::SimdFloatDiv                  0      0.00%     77.35% # Class of executed instruction
system.cpu3.op_class::SimdFloatMisc                 0      0.00%     77.35% # Class of executed instruction
system.cpu3.op_class::SimdFloatMult                 0      0.00%     77.35% # Class of executed instruction
system.cpu3.op_class::SimdFloatMultAcc              0      0.00%     77.35% # Class of executed instruction
system.cpu3.op_class::SimdFloatSqrt                 0      0.00%     77.35% # Class of executed instruction
system.cpu3.op_class::MemRead                 1179939     14.66%     92.01% # Class of executed instruction
system.cpu3.op_class::MemWrite                 642782      7.99%    100.00% # Class of executed instruction
system.cpu3.op_class::IprAccess                     0      0.00%    100.00% # Class of executed instruction
system.cpu3.op_class::InstPrefetch                  0      0.00%    100.00% # Class of executed instruction
system.cpu3.op_class::total                   8046267                       # Class of executed instruction
system.iobus.trans_dist::ReadReq                   82                       # Transaction distribution
system.iobus.trans_dist::ReadResp                  82                       # Transaction distribution
system.iobus.trans_dist::WriteReq                2131                       # Transaction distribution
system.iobus.trans_dist::WriteResp               2131                       # Transaction distribution
system.iobus.trans_dist::MessageReq                12                       # Transaction distribution
system.iobus.trans_dist::MessageResp               12                       # Transaction distribution
system.iobus.pkt_count_system.pc.south_bridge.io_apic.int_master::system.ruby.l0_cntrl0.sequencer.pio-slave-port            2                       # Packet count per connected master and slave (bytes)
system.iobus.pkt_count_system.pc.south_bridge.io_apic.int_master::system.ruby.l0_cntrl1.sequencer.pio-slave-port            4                       # Packet count per connected master and slave (bytes)
system.iobus.pkt_count_system.pc.south_bridge.io_apic.int_master::system.ruby.l0_cntrl2.sequencer.pio-slave-port            2                       # Packet count per connected master and slave (bytes)
system.iobus.pkt_count_system.pc.south_bridge.io_apic.int_master::system.ruby.l0_cntrl3.sequencer.pio-slave-port            2                       # Packet count per connected master and slave (bytes)
system.iobus.pkt_count_system.pc.south_bridge.io_apic.int_master::total           10                       # Packet count per connected master and slave (bytes)
system.iobus.pkt_count_system.ruby.l0_cntrl0.sequencer.mem-master-port::system.pc.south_bridge.io_apic.pio            6                       # Packet count per connected master and slave (bytes)
system.iobus.pkt_count_system.ruby.l0_cntrl0.sequencer.mem-master-port::system.pc.com_1.pio           22                       # Packet count per connected master and slave (bytes)
system.iobus.pkt_count_system.ruby.l0_cntrl0.sequencer.mem-master-port::system.ruby.l0_cntrl0.sequencer.pio-slave-port         1048                       # Packet count per connected master and slave (bytes)
system.iobus.pkt_count_system.ruby.l0_cntrl0.sequencer.mem-master-port::system.ruby.l0_cntrl1.sequencer.pio-slave-port            2                       # Packet count per connected master and slave (bytes)
system.iobus.pkt_count_system.ruby.l0_cntrl0.sequencer.mem-master-port::total         1078                       # Packet count per connected master and slave (bytes)
system.iobus.pkt_count_system.ruby.l0_cntrl1.sequencer.mem-master-port::system.pc.south_bridge.io_apic.pio           14                       # Packet count per connected master and slave (bytes)
system.iobus.pkt_count_system.ruby.l0_cntrl1.sequencer.mem-master-port::system.pc.com_1.pio          162                       # Packet count per connected master and slave (bytes)
system.iobus.pkt_count_system.ruby.l0_cntrl1.sequencer.mem-master-port::system.ruby.l0_cntrl0.sequencer.pio-slave-port            2                       # Packet count per connected master and slave (bytes)
system.iobus.pkt_count_system.ruby.l0_cntrl1.sequencer.mem-master-port::system.ruby.l0_cntrl1.sequencer.pio-slave-port         1054                       # Packet count per connected master and slave (bytes)
system.iobus.pkt_count_system.ruby.l0_cntrl1.sequencer.mem-master-port::system.ruby.l0_cntrl2.sequencer.pio-slave-port            2                       # Packet count per connected master and slave (bytes)
system.iobus.pkt_count_system.ruby.l0_cntrl1.sequencer.mem-master-port::total         1234                       # Packet count per connected master and slave (bytes)
system.iobus.pkt_count_system.ruby.l0_cntrl2.sequencer.mem-master-port::system.pc.south_bridge.io_apic.pio            8                       # Packet count per connected master and slave (bytes)
system.iobus.pkt_count_system.ruby.l0_cntrl2.sequencer.mem-master-port::system.ruby.l0_cntrl2.sequencer.pio-slave-port         1046                       # Packet count per connected master and slave (bytes)
system.iobus.pkt_count_system.ruby.l0_cntrl2.sequencer.mem-master-port::system.ruby.l0_cntrl3.sequencer.pio-slave-port            2                       # Packet count per connected master and slave (bytes)
system.iobus.pkt_count_system.ruby.l0_cntrl2.sequencer.mem-master-port::total         1056                       # Packet count per connected master and slave (bytes)
system.iobus.pkt_count_system.ruby.l0_cntrl3.sequencer.mem-master-port::system.pc.south_bridge.io_apic.pio            8                       # Packet count per connected master and slave (bytes)
system.iobus.pkt_count_system.ruby.l0_cntrl3.sequencer.mem-master-port::system.ruby.l0_cntrl0.sequencer.pio-slave-port            2                       # Packet count per connected master and slave (bytes)
system.iobus.pkt_count_system.ruby.l0_cntrl3.sequencer.mem-master-port::system.ruby.l0_cntrl1.sequencer.pio-slave-port            2                       # Packet count per connected master and slave (bytes)
system.iobus.pkt_count_system.ruby.l0_cntrl3.sequencer.mem-master-port::system.ruby.l0_cntrl2.sequencer.pio-slave-port            2                       # Packet count per connected master and slave (bytes)
system.iobus.pkt_count_system.ruby.l0_cntrl3.sequencer.mem-master-port::system.ruby.l0_cntrl3.sequencer.pio-slave-port         1058                       # Packet count per connected master and slave (bytes)
system.iobus.pkt_count_system.ruby.l0_cntrl3.sequencer.mem-master-port::total         1072                       # Packet count per connected master and slave (bytes)
system.iobus.pkt_count::total                    4450                       # Packet count per connected master and slave (bytes)
system.iobus.pkt_size_system.pc.south_bridge.io_apic.int_master::system.ruby.l0_cntrl0.sequencer.pio-slave-port            4                       # Cumulative packet size per connected master and slave (bytes)
system.iobus.pkt_size_system.pc.south_bridge.io_apic.int_master::system.ruby.l0_cntrl1.sequencer.pio-slave-port            8                       # Cumulative packet size per connected master and slave (bytes)
system.iobus.pkt_size_system.pc.south_bridge.io_apic.int_master::system.ruby.l0_cntrl2.sequencer.pio-slave-port            4                       # Cumulative packet size per connected master and slave (bytes)
system.iobus.pkt_size_system.pc.south_bridge.io_apic.int_master::system.ruby.l0_cntrl3.sequencer.pio-slave-port            4                       # Cumulative packet size per connected master and slave (bytes)
system.iobus.pkt_size_system.pc.south_bridge.io_apic.int_master::total           20                       # Cumulative packet size per connected master and slave (bytes)
system.iobus.pkt_size_system.ruby.l0_cntrl0.sequencer.mem-master-port::system.pc.south_bridge.io_apic.pio           12                       # Cumulative packet size per connected master and slave (bytes)
system.iobus.pkt_size_system.ruby.l0_cntrl0.sequencer.mem-master-port::system.pc.com_1.pio           11                       # Cumulative packet size per connected master and slave (bytes)
system.iobus.pkt_size_system.ruby.l0_cntrl0.sequencer.mem-master-port::system.ruby.l0_cntrl0.sequencer.pio-slave-port         2096                       # Cumulative packet size per connected master and slave (bytes)
system.iobus.pkt_size_system.ruby.l0_cntrl0.sequencer.mem-master-port::system.ruby.l0_cntrl1.sequencer.pio-slave-port            4                       # Cumulative packet size per connected master and slave (bytes)
system.iobus.pkt_size_system.ruby.l0_cntrl0.sequencer.mem-master-port::total         2123                       # Cumulative packet size per connected master and slave (bytes)
system.iobus.pkt_size_system.ruby.l0_cntrl1.sequencer.mem-master-port::system.pc.south_bridge.io_apic.pio           28                       # Cumulative packet size per connected master and slave (bytes)
system.iobus.pkt_size_system.ruby.l0_cntrl1.sequencer.mem-master-port::system.pc.com_1.pio           81                       # Cumulative packet size per connected master and slave (bytes)
system.iobus.pkt_size_system.ruby.l0_cntrl1.sequencer.mem-master-port::system.ruby.l0_cntrl0.sequencer.pio-slave-port            4                       # Cumulative packet size per connected master and slave (bytes)
system.iobus.pkt_size_system.ruby.l0_cntrl1.sequencer.mem-master-port::system.ruby.l0_cntrl1.sequencer.pio-slave-port         2108                       # Cumulative packet size per connected master and slave (bytes)
system.iobus.pkt_size_system.ruby.l0_cntrl1.sequencer.mem-master-port::system.ruby.l0_cntrl2.sequencer.pio-slave-port            4                       # Cumulative packet size per connected master and slave (bytes)
system.iobus.pkt_size_system.ruby.l0_cntrl1.sequencer.mem-master-port::total         2225                       # Cumulative packet size per connected master and slave (bytes)
system.iobus.pkt_size_system.ruby.l0_cntrl2.sequencer.mem-master-port::system.pc.south_bridge.io_apic.pio           16                       # Cumulative packet size per connected master and slave (bytes)
system.iobus.pkt_size_system.ruby.l0_cntrl2.sequencer.mem-master-port::system.ruby.l0_cntrl2.sequencer.pio-slave-port         2092                       # Cumulative packet size per connected master and slave (bytes)
system.iobus.pkt_size_system.ruby.l0_cntrl2.sequencer.mem-master-port::system.ruby.l0_cntrl3.sequencer.pio-slave-port            4                       # Cumulative packet size per connected master and slave (bytes)
system.iobus.pkt_size_system.ruby.l0_cntrl2.sequencer.mem-master-port::total         2112                       # Cumulative packet size per connected master and slave (bytes)
system.iobus.pkt_size_system.ruby.l0_cntrl3.sequencer.mem-master-port::system.pc.south_bridge.io_apic.pio           16                       # Cumulative packet size per connected master and slave (bytes)
system.iobus.pkt_size_system.ruby.l0_cntrl3.sequencer.mem-master-port::system.ruby.l0_cntrl0.sequencer.pio-slave-port            4                       # Cumulative packet size per connected master and slave (bytes)
system.iobus.pkt_size_system.ruby.l0_cntrl3.sequencer.mem-master-port::system.ruby.l0_cntrl1.sequencer.pio-slave-port            4                       # Cumulative packet size per connected master and slave (bytes)
system.iobus.pkt_size_system.ruby.l0_cntrl3.sequencer.mem-master-port::system.ruby.l0_cntrl2.sequencer.pio-slave-port            4                       # Cumulative packet size per connected master and slave (bytes)
system.iobus.pkt_size_system.ruby.l0_cntrl3.sequencer.mem-master-port::system.ruby.l0_cntrl3.sequencer.pio-slave-port         2116                       # Cumulative packet size per connected master and slave (bytes)
system.iobus.pkt_size_system.ruby.l0_cntrl3.sequencer.mem-master-port::total         2144                       # Cumulative packet size per connected master and slave (bytes)
system.iobus.pkt_size::total                     8624                       # Cumulative packet size per connected master and slave (bytes)
system.iobus.reqLayer8.occupancy                32496                       # Layer occupancy (ticks)
system.iobus.reqLayer8.utilization                0.0                       # Layer utilization (%)
system.iobus.reqLayer12.occupancy              119500                       # Layer occupancy (ticks)
system.iobus.reqLayer12.utilization               0.0                       # Layer utilization (%)
system.iobus.reqLayer17.occupancy             1239499                       # Layer occupancy (ticks)
system.iobus.reqLayer17.utilization               0.0                       # Layer utilization (%)
system.iobus.reqLayer18.occupancy             1348696                       # Layer occupancy (ticks)
system.iobus.reqLayer18.utilization               0.0                       # Layer utilization (%)
system.iobus.reqLayer19.occupancy             1216500                       # Layer occupancy (ticks)
system.iobus.reqLayer19.utilization               0.0                       # Layer utilization (%)
system.iobus.reqLayer20.occupancy             1225998                       # Layer occupancy (ticks)
system.iobus.reqLayer20.utilization               0.0                       # Layer utilization (%)
system.iobus.respLayer0.occupancy                7000                       # Layer occupancy (ticks)
system.iobus.respLayer0.utilization               0.0                       # Layer utilization (%)
system.iobus.respLayer2.occupancy              811000                       # Layer occupancy (ticks)
system.iobus.respLayer2.utilization               0.0                       # Layer utilization (%)
system.iobus.respLayer4.occupancy              945000                       # Layer occupancy (ticks)
system.iobus.respLayer4.utilization               0.0                       # Layer utilization (%)
system.iobus.respLayer6.occupancy              793000                       # Layer occupancy (ticks)
system.iobus.respLayer6.utilization               0.0                       # Layer utilization (%)
system.iobus.respLayer8.occupancy              806000                       # Layer occupancy (ticks)
system.iobus.respLayer8.utilization               0.0                       # Layer utilization (%)
system.pc.south_bridge.ide.disks.dma_read_full_pages            0                       # Number of full page size DMA reads (not PRD).
system.pc.south_bridge.ide.disks.dma_read_bytes            0                       # Number of bytes transfered via DMA reads (not PRD).
system.pc.south_bridge.ide.disks.dma_read_txs            0                       # Number of DMA read transactions (not PRD).
system.pc.south_bridge.ide.disks.dma_write_full_pages            0                       # Number of full page size DMA writes.
system.pc.south_bridge.ide.disks.dma_write_bytes            0                       # Number of bytes transfered via DMA writes.
system.pc.south_bridge.ide.disks.dma_write_txs            0                       # Number of DMA write transactions.
system.ruby.clk_domain.clock                      500                       # Clock period in ticks
system.ruby.delayHist::bucket_size                  4                       # delay histogram for all message
system.ruby.delayHist::max_bucket                  39                       # delay histogram for all message
system.ruby.delayHist::samples              190516222                       # delay histogram for all message
system.ruby.delayHist::mean                  0.612464                       # delay histogram for all message
system.ruby.delayHist::stdev                 2.127802                       # delay histogram for all message
system.ruby.delayHist                    |   175939738     92.35%     92.35% |       16556      0.01%     92.36% |    14554205      7.64%    100.00% |        1458      0.00%    100.00% |        4238      0.00%    100.00% |           6      0.00%    100.00% |          21      0.00%    100.00% |           0      0.00%    100.00% |           0      0.00%    100.00% |           0      0.00%    100.00% # delay histogram for all message
system.ruby.delayHist::total                190516222                       # delay histogram for all message
system.ruby.outstanding_req_hist_seqr::bucket_size            1                      
system.ruby.outstanding_req_hist_seqr::max_bucket            9                      
system.ruby.outstanding_req_hist_seqr::samples   1227194393                      
system.ruby.outstanding_req_hist_seqr::mean     1.000000                      
system.ruby.outstanding_req_hist_seqr::gmean     1.000000                      
system.ruby.outstanding_req_hist_seqr::stdev     0.000431                      
system.ruby.outstanding_req_hist_seqr    |           0      0.00%      0.00% |  1227194165    100.00%    100.00% |         228      0.00%    100.00% |           0      0.00%    100.00% |           0      0.00%    100.00% |           0      0.00%    100.00% |           0      0.00%    100.00% |           0      0.00%    100.00% |           0      0.00%    100.00% |           0      0.00%    100.00%
system.ruby.outstanding_req_hist_seqr::total   1227194393                      
system.ruby.latency_hist_seqr::bucket_size          512                      
system.ruby.latency_hist_seqr::max_bucket         5119                      
system.ruby.latency_hist_seqr::samples     1227194393                      
system.ruby.latency_hist_seqr::mean          2.398887                      
system.ruby.latency_hist_seqr::gmean         1.115699                      
system.ruby.latency_hist_seqr::stdev        15.833793                      
system.ruby.latency_hist_seqr            |  1226955952     99.98%     99.98% |      218084      0.02%    100.00% |       16663      0.00%    100.00% |        3196      0.00%    100.00% |         469      0.00%    100.00% |          29      0.00%    100.00% |           0      0.00%    100.00% |           0      0.00%    100.00% |           0      0.00%    100.00% |           0      0.00%    100.00%
system.ruby.latency_hist_seqr::total       1227194393                      
system.ruby.hit_latency_hist_seqr::bucket_size            1                      
system.ruby.hit_latency_hist_seqr::max_bucket            9                      
system.ruby.hit_latency_hist_seqr::samples   1176169707                      
system.ruby.hit_latency_hist_seqr::mean             1                      
system.ruby.hit_latency_hist_seqr::gmean            1                      
system.ruby.hit_latency_hist_seqr        |           0      0.00%      0.00% |  1176169707    100.00%    100.00% |           0      0.00%    100.00% |           0      0.00%    100.00% |           0      0.00%    100.00% |           0      0.00%    100.00% |           0      0.00%    100.00% |           0      0.00%    100.00% |           0      0.00%    100.00% |           0      0.00%    100.00%
[...]
system.ruby.L1Cache_Controller.Ack_all   |        4298     39.25%     39.25% |        2509     22.91%     62.16% |        1812     16.55%     78.71% |        2332     21.29%    100.00%
system.ruby.L1Cache_Controller.Ack_all::total        10951                      
system.ruby.L1Cache_Controller.WB_Ack    |       44749      0.18%      0.18% |    24509532     98.75%     98.93% |       55934      0.23%     99.15% |      210083      0.85%    100.00%
system.ruby.L1Cache_Controller.WB_Ack::total     24820298                      
system.ruby.L1Cache_Controller.I.Load    |      100295      0.67%      0.67% |    14455757     97.13%     97.80% |      106627      0.72%     98.52% |      220904      1.48%    100.00%
system.ruby.L1Cache_Controller.I.Load::total     14883583                      
system.ruby.L1Cache_Controller.I.Store   |       21422      0.21%      0.21% |    10225214     98.93%     99.14% |       20947      0.20%     99.34% |       68447      0.66%    100.00%
system.ruby.L1Cache_Controller.I.Store::total     10336030                      
system.ruby.L1Cache_Controller.I.Inv     |        3493     17.78%     17.78% |        8833     44.95%     62.73% |        2591     13.19%     75.91% |        4733     24.09%    100.00%
system.ruby.L1Cache_Controller.I.Inv::total        19650                      
system.ruby.L1Cache_Controller.S.Load    |      126486     11.74%     11.74% |      591501     54.91%     66.65% |      122945     11.41%     78.06% |      236313     21.94%    100.00%
system.ruby.L1Cache_Controller.S.Load::total      1077245                      
system.ruby.L1Cache_Controller.S.Store   |        2776     35.06%     35.06% |        1786     22.56%     57.62% |        1633     20.63%     78.25% |        1722     21.75%    100.00%
system.ruby.L1Cache_Controller.S.Store::total         7917                      
system.ruby.L1Cache_Controller.S.L0_Invalidate_Own |       31130     12.17%     12.17% |      163202     63.79%     75.96% |       28496     11.14%     87.09% |       33017     12.91%    100.00%
system.ruby.L1Cache_Controller.S.L0_Invalidate_Own::total       255845                      
system.ruby.L1Cache_Controller.S.L0_Invalidate_Else |       16869     30.55%     30.55% |         934      1.69%     32.24% |       16560     29.99%     62.23% |       20856     37.77%    100.00%
system.ruby.L1Cache_Controller.S.L0_Invalidate_Else::total        55219                      
system.ruby.L1Cache_Controller.SS.Load   |        5359     34.74%     34.74% |         302      1.96%     36.70% |        7670     49.72%     86.42% |        2095     13.58%    100.00%
system.ruby.L1Cache_Controller.SS.Load::total        15426                      
system.ruby.L1Cache_Controller.SS.Store  |         623     75.98%     75.98% |          32      3.90%     79.88% |          97     11.83%     91.71% |          68      8.29%    100.00%
system.ruby.L1Cache_Controller.SS.Store::total          820                      
system.ruby.L1Cache_Controller.SS.Inv    |       22098     31.62%     31.62% |        2038      2.92%     34.54% |       22411     32.07%     66.61% |       23329     33.39%    100.00%
system.ruby.L1Cache_Controller.SS.Inv::total        69876                      
system.ruby.L1Cache_Controller.SS.L1_Replacement |       32005     12.31%     12.31% |      164392     63.24%     75.55% |       29212     11.24%     86.79% |       34348     13.21%    100.00%
system.ruby.L1Cache_Controller.SS.L1_Replacement::total       259957                      
system.ruby.L1Cache_Controller.E.WriteBack |       49347      0.34%      0.34% |    14078608     98.16%     98.51% |       56991      0.40%     98.90% |      157049      1.10%    100.00%
system.ruby.L1Cache_Controller.E.WriteBack::total     14341995                      
system.ruby.L1Cache_Controller.E.L0_Invalidate_Own |         352      0.16%      0.16% |      211082     96.85%     97.02% |        1053      0.48%     97.50% |        5452      2.50%    100.00%
system.ruby.L1Cache_Controller.E.L0_Invalidate_Own::total       217939                      
system.ruby.L1Cache_Controller.E.L0_Invalidate_Else |        5197     26.22%     26.22% |         253      1.28%     27.50% |        9641     48.65%     76.15% |        4726     23.85%    100.00%
system.ruby.L1Cache_Controller.E.L0_Invalidate_Else::total        19817                      
system.ruby.L1Cache_Controller.EE.Inv    |        2085     20.52%     20.52% |          55      0.54%     21.06% |        4821     47.45%     68.51% |        3199     31.49%    100.00%
system.ruby.L1Cache_Controller.EE.Inv::total        10160                      
system.ruby.L1Cache_Controller.EE.L1_Replacement |         283      0.13%      0.13% |      210752     96.93%     97.06% |        1010      0.46%     97.52% |        5389      2.48%    100.00%
system.ruby.L1Cache_Controller.EE.L1_Replacement::total       217434                      
system.ruby.L1Cache_Controller.EE.Fwd_GETX |           1      5.26%      5.26% |           4     21.05%     26.32% |           7     36.84%     63.16% |           7     36.84%    100.00%
system.ruby.L1Cache_Controller.EE.Fwd_GETX::total           19                      
system.ruby.L1Cache_Controller.EE.Fwd_GETS |        2796     35.69%     35.69% |         151      1.93%     37.61% |        4235     54.05%     91.67% |         653      8.33%    100.00%
system.ruby.L1Cache_Controller.EE.Fwd_GETS::total         7835                      
system.ruby.L1Cache_Controller.M.WriteBack |      123276      0.34%      0.34% |    35289051     98.14%     98.48% |      121088      0.34%     98.82% |      425715      1.18%    100.00%
system.ruby.L1Cache_Controller.M.WriteBack::total     35959130                      
system.ruby.L1Cache_Controller.M.L0_Invalidate_Own |        2365      3.38%      3.38% |       61393     87.72%     91.10% |        2259      3.23%     94.33% |        3970      5.67%    100.00%
system.ruby.L1Cache_Controller.M.L0_Invalidate_Own::total        69987                      
system.ruby.L1Cache_Controller.M.L0_Invalidate_Else |        8675     37.98%     37.98% |         849      3.72%     41.69% |        5871     25.70%     67.39% |        7448     32.61%    100.00%
system.ruby.L1Cache_Controller.M.L0_Invalidate_Else::total        22843                      
system.ruby.L1Cache_Controller.MM.Load   |       83626      0.59%      0.59% |    13741406     96.96%     97.55% |       77358      0.55%     98.10% |      269239      1.90%    100.00%
system.ruby.L1Cache_Controller.MM.Load::total     14171629                      
system.ruby.L1Cache_Controller.MM.Store  |       25885      0.22%      0.22% |    11382842     98.68%     98.90% |       29177      0.25%     99.15% |       97637      0.85%    100.00%
system.ruby.L1Cache_Controller.MM.Store::total     11535541                      
system.ruby.L1Cache_Controller.MM.Inv    |       19786     34.95%     34.95% |        4689      8.28%     43.23% |       14578     25.75%     68.98% |       17559     31.02%    100.00%
system.ruby.L1Cache_Controller.MM.Inv::total        56612                      
system.ruby.L1Cache_Controller.MM.L1_Replacement |       44466      0.18%      0.18% |    24298780     98.76%     98.94% |       54924      0.22%     99.17% |      204694      0.83%    100.00%
system.ruby.L1Cache_Controller.MM.L1_Replacement::total     24602864                      
system.ruby.L1Cache_Controller.MM.Fwd_GETX |         779     25.37%     25.37% |         462     15.04%     40.41% |         727     23.67%     64.08% |        1103     35.92%    100.00%
system.ruby.L1Cache_Controller.MM.Fwd_GETX::total         3071                      
system.ruby.L1Cache_Controller.MM.Fwd_GETS |        9019     33.62%     33.62% |        2359      8.79%     42.41% |       10062     37.50%     79.91% |        5390     20.09%    100.00%
system.ruby.L1Cache_Controller.MM.Fwd_GETS::total        26830                      
system.ruby.L1Cache_Controller.IS.Data_Exclusive |       54915      0.38%      0.38% |    14289938     98.01%     98.39% |       67667      0.46%     98.85% |      167202      1.15%    100.00%
system.ruby.L1Cache_Controller.IS.Data_Exclusive::total     14579722                      
system.ruby.L1Cache_Controller.IS.DataS_fromL1 |       14318     41.30%     41.30% |        2674      7.71%     49.02% |        5471     15.78%     64.80% |       12202     35.20%    100.00%
system.ruby.L1Cache_Controller.IS.DataS_fromL1::total        34665                      
system.ruby.L1Cache_Controller.IS.Data_all_Acks |       31062     11.54%     11.54% |      163145     60.60%     72.14% |       33489     12.44%     84.58% |       41500     15.42%    100.00%
system.ruby.L1Cache_Controller.IS.Data_all_Acks::total       269196                      
system.ruby.L1Cache_Controller.IM.Data   |         899     40.55%     40.55% |         692     31.21%     71.76% |          82      3.70%     75.46% |         544     24.54%    100.00%
system.ruby.L1Cache_Controller.IM.Data::total         2217                      
system.ruby.L1Cache_Controller.IM.Data_all_Acks |       20523      0.20%      0.20% |    10224523     98.94%     99.14% |       20865      0.20%     99.34% |       67905      0.66%    100.00%
system.ruby.L1Cache_Controller.IM.Data_all_Acks::total     10333816                      
system.ruby.L1Cache_Controller.SM.Inv    |           0      0.00%      0.00% |           1     33.33%     33.33% |           0      0.00%     33.33% |           2     66.67%    100.00%
system.ruby.L1Cache_Controller.SM.Inv::total            3                      
system.ruby.L1Cache_Controller.SM.Ack    |        9319     49.03%     49.03% |        4584     24.12%     73.14% |        2262     11.90%     85.04% |        2843     14.96%    100.00%
system.ruby.L1Cache_Controller.SM.Ack::total        19008                      
system.ruby.L1Cache_Controller.SM.Ack_all |        4298     39.25%     39.25% |        2509     22.91%     62.16% |        1812     16.55%     78.71% |        2332     21.29%    100.00%
system.ruby.L1Cache_Controller.SM.Ack_all::total        10951                      
system.ruby.L1Cache_Controller.M_I.Inv   |           0      0.00%      0.00% |           0      0.00%      0.00% |           0      0.00%      0.00% |           7    100.00%    100.00%
system.ruby.L1Cache_Controller.M_I.Inv::total            7                      
system.ruby.L1Cache_Controller.M_I.WB_Ack |       44749      0.18%      0.18% |    24509532     98.75%     98.93% |       55934      0.23%     99.15% |      210076      0.85%    100.00%
system.ruby.L1Cache_Controller.M_I.WB_Ack::total     24820291                      
system.ruby.L1Cache_Controller.SINK_WB_ACK.WB_Ack |           0      0.00%      0.00% |           0      0.00%      0.00% |           0      0.00%      0.00% |           7    100.00%    100.00%
system.ruby.L1Cache_Controller.SINK_WB_ACK.WB_Ack::total            7                      
system.ruby.L1Cache_Controller.S_IL0.Store |           1     50.00%     50.00% |           0      0.00%     50.00% |           0      0.00%     50.00% |           1     50.00%    100.00%
system.ruby.L1Cache_Controller.S_IL0.Store::total            2                      
system.ruby.L1Cache_Controller.S_IL0.L0_Invalidate_Own |       31130     12.17%     12.17% |      163202     63.79%     75.96% |       28496     11.14%     87.09% |       33017     12.91%    100.00%
system.ruby.L1Cache_Controller.S_IL0.L0_Invalidate_Own::total       255845                      
system.ruby.L1Cache_Controller.S_IL0.L0_Invalidate_Else |       16869     30.55%     30.55% |         934      1.69%     32.24% |       16560     29.99%     62.23% |       20856     37.77%    100.00%
system.ruby.L1Cache_Controller.S_IL0.L0_Invalidate_Else::total        55219                      
system.ruby.L1Cache_Controller.S_IL0.L0_Ack |       47999     15.43%     15.43% |      164136     52.77%     68.20% |       45056     14.48%     82.68% |       53873     17.32%    100.00%
system.ruby.L1Cache_Controller.S_IL0.L0_Ack::total       311064                      
system.ruby.L1Cache_Controller.E_IL0.L0_DataAck |         384     16.64%     16.64% |         373     16.16%     32.80% |         621     26.91%     59.71% |         930     40.29%    100.00%
system.ruby.L1Cache_Controller.E_IL0.L0_DataAck::total         2308                      
system.ruby.L1Cache_Controller.E_IL0.L0_Invalidate_Own |         352      0.16%      0.16% |      211082     96.85%     97.02% |        1053      0.48%     97.50% |        5452      2.50%    100.00%
system.ruby.L1Cache_Controller.E_IL0.L0_Invalidate_Own::total       217939                      
system.ruby.L1Cache_Controller.E_IL0.L0_Invalidate_Else |        5197     26.22%     26.22% |         253      1.28%     27.50% |        9641     48.65%     76.15% |        4726     23.85%    100.00%
system.ruby.L1Cache_Controller.E_IL0.L0_Invalidate_Else::total        19817                      
system.ruby.L1Cache_Controller.E_IL0.L0_Ack |        5165      2.19%      2.19% |      210962     89.60%     91.79% |       10073      4.28%     96.07% |        9248      3.93%    100.00%
system.ruby.L1Cache_Controller.E_IL0.L0_Ack::total       235448                      
system.ruby.L1Cache_Controller.M_IL0.L0_DataAck |        7651     26.92%     26.92% |        7937     27.93%     54.86% |        5772     20.31%     75.17% |        7056     24.83%    100.00%
system.ruby.L1Cache_Controller.M_IL0.L0_DataAck::total        28416                      
system.ruby.L1Cache_Controller.M_IL0.L0_Invalidate_Own |        2365      3.38%      3.38% |       61393     87.72%     91.10% |        2259      3.23%     94.33% |        3970      5.67%    100.00%
system.ruby.L1Cache_Controller.M_IL0.L0_Invalidate_Own::total        69987                      
system.ruby.L1Cache_Controller.M_IL0.L0_Invalidate_Else |        8675     37.98%     37.98% |         849      3.72%     41.69% |        5871     25.70%     67.39% |        7448     32.61%    100.00%
system.ruby.L1Cache_Controller.M_IL0.L0_Invalidate_Else::total        22843                      
system.ruby.L1Cache_Controller.M_IL0.L0_Ack |        3389      5.26%      5.26% |       54305     84.31%     89.57% |        2358      3.66%     93.23% |        4362      6.77%    100.00%
system.ruby.L1Cache_Controller.M_IL0.L0_Ack::total        64414                      
system.ruby.L2Cache_Controller.L1_GETS       14883738      0.00%      0.00%
system.ruby.L2Cache_Controller.L1_GETX       10336042      0.00%      0.00%
system.ruby.L2Cache_Controller.L1_UPGRADE         8737      0.00%      0.00%
system.ruby.L2Cache_Controller.L1_PUTX       24820291      0.00%      0.00%
system.ruby.L2Cache_Controller.L1_PUTX_old           14      0.00%      0.00%
system.ruby.L2Cache_Controller.L2_Replacement      4249019      0.00%      0.00%
system.ruby.L2Cache_Controller.L2_Replacement_clean      3277441      0.00%      0.00%
system.ruby.L2Cache_Controller.Mem_Data       7535469      0.00%      0.00%
system.ruby.L2Cache_Controller.Mem_Ack        7526462      0.00%      0.00%
system.ruby.L2Cache_Controller.WB_Data          37486      0.00%      0.00%
system.ruby.L2Cache_Controller.WB_Data_clean        53798      0.00%      0.00%
system.ruby.L2Cache_Controller.Ack              44820      0.00%      0.00%
system.ruby.L2Cache_Controller.Ack_all          33644      0.00%      0.00%
system.ruby.L2Cache_Controller.Unblock          34665      0.00%      0.00%
system.ruby.L2Cache_Controller.Exclusive_Unblock     24924489      0.00%      0.00%
system.ruby.L2Cache_Controller.MEM_Inv              4      0.00%      0.00%
system.ruby.L2Cache_Controller.NP.L1_GETS      3324579      0.00%      0.00%
system.ruby.L2Cache_Controller.NP.L1_GETX      4210890      0.00%      0.00%
system.ruby.L2Cache_Controller.NP.L1_PUTX_old            7      0.00%      0.00%
system.ruby.L2Cache_Controller.SS.L1_GETS       269010      0.00%      0.00%
system.ruby.L2Cache_Controller.SS.L1_GETX         2217      0.00%      0.00%
system.ruby.L2Cache_Controller.SS.L1_UPGRADE         8734      0.00%      0.00%
system.ruby.L2Cache_Controller.SS.L2_Replacement          677      0.00%      0.00%
system.ruby.L2Cache_Controller.SS.L2_Replacement_clean        22807      0.00%      0.00%
system.ruby.L2Cache_Controller.M.L1_GETS     11255236      0.00%      0.00%
system.ruby.L2Cache_Controller.M.L1_GETX      6119836      0.00%      0.00%
system.ruby.L2Cache_Controller.M.L2_Replacement      4245047      0.00%      0.00%
system.ruby.L2Cache_Controller.M.L2_Replacement_clean      3191152      0.00%      0.00%
system.ruby.L2Cache_Controller.MT.L1_GETS        34665      0.00%      0.00%
system.ruby.L2Cache_Controller.MT.L1_GETX         3090      0.00%      0.00%
system.ruby.L2Cache_Controller.MT.L1_PUTX     24820291      0.00%      0.00%
system.ruby.L2Cache_Controller.MT.L2_Replacement         3295      0.00%      0.00%
system.ruby.L2Cache_Controller.MT.L2_Replacement_clean        63482      0.00%      0.00%
system.ruby.L2Cache_Controller.MT.MEM_Inv            2      0.00%      0.00%
system.ruby.L2Cache_Controller.M_I.L1_GETS            6      0.00%      0.00%
system.ruby.L2Cache_Controller.M_I.L1_GETX            2      0.00%      0.00%
system.ruby.L2Cache_Controller.M_I.Mem_Ack      7526462      0.00%      0.00%
system.ruby.L2Cache_Controller.MT_I.WB_Data         2356      0.00%      0.00%
system.ruby.L2Cache_Controller.MT_I.WB_Data_clean          450      0.00%      0.00%
system.ruby.L2Cache_Controller.MT_I.Ack_all          491      0.00%      0.00%
system.ruby.L2Cache_Controller.MT_I.MEM_Inv            2      0.00%      0.00%
system.ruby.L2Cache_Controller.MCT_I.L1_GETS            1      0.00%      0.00%
system.ruby.L2Cache_Controller.MCT_I.L1_PUTX_old            7      0.00%      0.00%
system.ruby.L2Cache_Controller.MCT_I.WB_Data        27962      0.00%      0.00%
system.ruby.L2Cache_Controller.MCT_I.WB_Data_clean        25851      0.00%      0.00%
system.ruby.L2Cache_Controller.MCT_I.Ack_all         9669      0.00%      0.00%
system.ruby.L2Cache_Controller.I_I.L1_GETS            1      0.00%      0.00%
system.ruby.L2Cache_Controller.I_I.Ack          44006      0.00%      0.00%
system.ruby.L2Cache_Controller.I_I.Ack_all        22807      0.00%      0.00%
system.ruby.L2Cache_Controller.S_I.Ack            814      0.00%      0.00%
system.ruby.L2Cache_Controller.S_I.Ack_all          677      0.00%      0.00%
system.ruby.L2Cache_Controller.ISS.L1_GETS           93      0.00%      0.00%
system.ruby.L2Cache_Controller.ISS.Mem_Data      3324486      0.00%      0.00%
system.ruby.L2Cache_Controller.IS.Mem_Data           93      0.00%      0.00%
system.ruby.L2Cache_Controller.IM.Mem_Data      4210890      0.00%      0.00%
system.ruby.L2Cache_Controller.SS_MB.L1_GETS           53      0.00%      0.00%
system.ruby.L2Cache_Controller.SS_MB.L1_GETX            4      0.00%      0.00%
system.ruby.L2Cache_Controller.SS_MB.L1_UPGRADE            3      0.00%      0.00%
system.ruby.L2Cache_Controller.SS_MB.Exclusive_Unblock        10951      0.00%      0.00%
system.ruby.L2Cache_Controller.MT_MB.L1_GETS           87      0.00%      0.00%
system.ruby.L2Cache_Controller.MT_MB.L1_GETX            3      0.00%      0.00%
system.ruby.L2Cache_Controller.MT_MB.Exclusive_Unblock     24913538      0.00%      0.00%
system.ruby.L2Cache_Controller.MT_IIB.L1_GETS            7      0.00%      0.00%
system.ruby.L2Cache_Controller.MT_IIB.WB_Data         7152      0.00%      0.00%
system.ruby.L2Cache_Controller.MT_IIB.WB_Data_clean        27418      0.00%      0.00%
system.ruby.L2Cache_Controller.MT_IIB.Unblock           95      0.00%      0.00%
system.ruby.L2Cache_Controller.MT_IB.WB_Data           16      0.00%      0.00%
system.ruby.L2Cache_Controller.MT_IB.WB_Data_clean           79      0.00%      0.00%
system.ruby.L2Cache_Controller.MT_SB.Unblock        34570      0.00%      0.00%

---------- End Simulation Statistics   ----------
