
---------- Begin Simulation Statistics ----------
sim_seconds                                  2.414677                       # Number of seconds simulated
sim_ticks                                2414676961000                       # Number of ticks simulated
final_tick                               54977671830001                       # Number of ticks from beginning of simulation (restored from checkpoints and never reset)
sim_freq                                 1000000000000                       # Frequency of simulated ticks
host_inst_rate                                 147094                       # Simulator instruction rate (inst/s)
host_op_rate                                   266638                       # Simulator op (including micro ops) rate (op/s)
host_tick_rate                              270507349                       # Simulator tick rate (ticks/s)
host_mem_usage                                1850184                       # Number of bytes of host memory used
host_seconds                                  8926.47                       # Real time elapsed on the host
sim_insts                                  1313035063                       # Number of instructions simulated
sim_ops                                    2380137624                       # Number of ops (including micro ops) simulated
system.voltage_domain.voltage                       1                       # Voltage in Volts
system.clk_domain.clock                          1000                       # Clock period in ticks
system.mem_ctrls.bytes_read::ruby.dir_cntrl0     89670784                       # Number of bytes read from this memory
system.mem_ctrls.bytes_read::total           89670784                       # Number of bytes read from this memory
system.mem_ctrls.bytes_written::ruby.dir_cntrl0     49487872                       # Number of bytes written to this memory
system.mem_ctrls.bytes_written::total        49487872                       # Number of bytes written to this memory
system.mem_ctrls.num_reads::ruby.dir_cntrl0      1401106                       # Number of read requests responded to by this memory
system.mem_ctrls.num_reads::total             1401106                       # Number of read requests responded to by this memory
system.mem_ctrls.num_writes::ruby.dir_cntrl0       773248                       # Number of write requests responded to by this memory
system.mem_ctrls.num_writes::total             773248                       # Number of write requests responded to by this memory
system.mem_ctrls.bw_read::ruby.dir_cntrl0     37135727                       # Total read bandwidth from this memory (bytes/s)
system.mem_ctrls.bw_read::total              37135727                       # Total read bandwidth from this memory (bytes/s)
system.mem_ctrls.bw_write::ruby.dir_cntrl0     20494614                       # Write bandwidth from this memory (bytes/s)
system.mem_ctrls.bw_write::total             20494614                       # Write bandwidth from this memory (bytes/s)
system.mem_ctrls.bw_total::ruby.dir_cntrl0     57630341                       # Total bandwidth to/from this memory (bytes/s)
system.mem_ctrls.bw_total::total             57630341                       # Total bandwidth to/from this memory (bytes/s)
system.mem_ctrls.readReqs                     1401106                       # Number of read requests accepted
system.mem_ctrls.writeReqs                     773248                       # Number of write requests accepted
system.mem_ctrls.readBursts                   1401106                       # Number of DRAM read bursts, including those serviced by the write queue
system.mem_ctrls.writeBursts                   773248                       # Number of DRAM write bursts, including those merged in the write queue
system.mem_ctrls.bytesReadDRAM               89574336                       # Total number of bytes read from DRAM
system.mem_ctrls.bytesReadWrQ                   96448                       # Total number of bytes read from write queue
system.mem_ctrls.bytesWritten                49485760                       # Total number of bytes written to DRAM
system.mem_ctrls.bytesReadSys                89670784                       # Total read bytes from the system interface side
system.mem_ctrls.bytesWrittenSys             49487872                       # Total written bytes from the system interface side
system.mem_ctrls.servicedByWrQ                   1507                       # Number of DRAM read bursts serviced by the write queue
system.mem_ctrls.mergedWrBursts                    40                       # Number of DRAM write bursts merged with an existing one
system.mem_ctrls.neitherReadNorWriteReqs            0                       # Number of requests that are neither read nor write
system.mem_ctrls.perBankRdBursts::0             88742                       # Per bank write bursts
system.mem_ctrls.perBankRdBursts::1             89314                       # Per bank write bursts
system.mem_ctrls.perBankRdBursts::2             84690                       # Per bank write bursts
system.mem_ctrls.perBankRdBursts::3             85729                       # Per bank write bursts
system.mem_ctrls.perBankRdBursts::4             89875                       # Per bank write bursts
system.mem_ctrls.perBankRdBursts::5             89811                       # Per bank write bursts
system.mem_ctrls.perBankRdBursts::6             90640                       # Per bank write bursts
system.mem_ctrls.perBankRdBursts::7             87021                       # Per bank write bursts
system.mem_ctrls.perBankRdBursts::8             91739                       # Per bank write bursts
system.mem_ctrls.perBankRdBursts::9             87395                       # Per bank write bursts
system.mem_ctrls.perBankRdBursts::10            82677                       # Per bank write bursts
system.mem_ctrls.perBankRdBursts::11            86878                       # Per bank write bursts
system.mem_ctrls.perBankRdBursts::12            86338                       # Per bank write bursts
system.mem_ctrls.perBankRdBursts::13            83130                       # Per bank write bursts
system.mem_ctrls.perBankRdBursts::14            87607                       # Per bank write bursts
system.mem_ctrls.perBankRdBursts::15            88013                       # Per bank write bursts
system.mem_ctrls.perBankWrBursts::0             47790                       # Per bank write bursts
system.mem_ctrls.perBankWrBursts::1             49850                       # Per bank write bursts
system.mem_ctrls.perBankWrBursts::2             46806                       # Per bank write bursts
system.mem_ctrls.perBankWrBursts::3             47570                       # Per bank write bursts
system.mem_ctrls.perBankWrBursts::4             48537                       # Per bank write bursts
system.mem_ctrls.perBankWrBursts::5             49708                       # Per bank write bursts
system.mem_ctrls.perBankWrBursts::6             51213                       # Per bank write bursts
system.mem_ctrls.perBankWrBursts::7             48657                       # Per bank write bursts
system.mem_ctrls.perBankWrBursts::8             50419                       # Per bank write bursts
system.mem_ctrls.perBankWrBursts::9             48764                       # Per bank write bursts
system.mem_ctrls.perBankWrBursts::10            46822                       # Per bank write bursts
system.mem_ctrls.perBankWrBursts::11            47429                       # Per bank write bursts
system.mem_ctrls.perBankWrBursts::12            48372                       # Per bank write bursts
system.mem_ctrls.perBankWrBursts::13            46331                       # Per bank write bursts
system.mem_ctrls.perBankWrBursts::14            47359                       # Per bank write bursts
system.mem_ctrls.perBankWrBursts::15            47588                       # Per bank write bursts
system.mem_ctrls.numRdRetry                         0                       # Number of times read queue was full causing retry
system.mem_ctrls.numWrRetry                         0                       # Number of times write queue was full causing retry
system.mem_ctrls.totGap                  2414676868000                       # Total gap between requests
system.mem_ctrls.readPktSize::0                     0                       # Read request sizes (log2)
system.mem_ctrls.readPktSize::1                     0                       # Read request sizes (log2)
system.mem_ctrls.readPktSize::2                     0                       # Read request sizes (log2)
system.mem_ctrls.readPktSize::3                     0                       # Read request sizes (log2)
system.mem_ctrls.readPktSize::4                     0                       # Read request sizes (log2)
system.mem_ctrls.readPktSize::5                     0                       # Read request sizes (log2)
system.mem_ctrls.readPktSize::6               1401106                       # Read request sizes (log2)
system.mem_ctrls.writePktSize::0                    0                       # Write request sizes (log2)
system.mem_ctrls.writePktSize::1                    0                       # Write request sizes (log2)
system.mem_ctrls.writePktSize::2                    0                       # Write request sizes (log2)
system.mem_ctrls.writePktSize::3                    0                       # Write request sizes (log2)
system.mem_ctrls.writePktSize::4                    0                       # Write request sizes (log2)
system.mem_ctrls.writePktSize::5                    0                       # Write request sizes (log2)
system.mem_ctrls.writePktSize::6               773248                       # Write request sizes (log2)
system.mem_ctrls.rdQLenPdf::0                 1394829                       # What read queue length does an incoming req see
system.mem_ctrls.rdQLenPdf::1                    4754                       # What read queue length does an incoming req see
system.mem_ctrls.rdQLenPdf::2                      16                       # What read queue length does an incoming req see
system.mem_ctrls.rdQLenPdf::3                       0                       # What read queue length does an incoming req see
system.mem_ctrls.rdQLenPdf::4                       0                       # What read queue length does an incoming req see
system.mem_ctrls.rdQLenPdf::5                       0                       # What read queue length does an incoming req see
system.mem_ctrls.rdQLenPdf::6                       0                       # What read queue length does an incoming req see
system.mem_ctrls.rdQLenPdf::7                       0                       # What read queue length does an incoming req see
system.mem_ctrls.rdQLenPdf::8                       0                       # What read queue length does an incoming req see
system.mem_ctrls.rdQLenPdf::9                       0                       # What read queue length does an incoming req see
system.mem_ctrls.rdQLenPdf::10                      0                       # What read queue length does an incoming req see
system.mem_ctrls.rdQLenPdf::11                      0                       # What read queue length does an incoming req see
system.mem_ctrls.rdQLenPdf::12                      0                       # What read queue length does an incoming req see
system.mem_ctrls.rdQLenPdf::13                      0                       # What read queue length does an incoming req see
system.mem_ctrls.rdQLenPdf::14                      0                       # What read queue length does an incoming req see
system.mem_ctrls.rdQLenPdf::15                      0                       # What read queue length does an incoming req see
system.mem_ctrls.rdQLenPdf::16                      0                       # What read queue length does an incoming req see
system.mem_ctrls.rdQLenPdf::17                      0                       # What read queue length does an incoming req see
system.mem_ctrls.rdQLenPdf::18                      0                       # What read queue length does an incoming req see
system.mem_ctrls.rdQLenPdf::19                      0                       # What read queue length does an incoming req see
system.mem_ctrls.rdQLenPdf::20                      0                       # What read queue length does an incoming req see
system.mem_ctrls.rdQLenPdf::21                      0                       # What read queue length does an incoming req see
system.mem_ctrls.rdQLenPdf::22                      0                       # What read queue length does an incoming req see
system.mem_ctrls.rdQLenPdf::23                      0                       # What read queue length does an incoming req see
system.mem_ctrls.rdQLenPdf::24                      0                       # What read queue length does an incoming req see
system.mem_ctrls.rdQLenPdf::25                      0                       # What read queue length does an incoming req see
system.mem_ctrls.rdQLenPdf::26                      0                       # What read queue length does an incoming req see
system.mem_ctrls.rdQLenPdf::27                      0                       # What read queue length does an incoming req see
system.mem_ctrls.rdQLenPdf::28                      0                       # What read queue length does an incoming req see
system.mem_ctrls.rdQLenPdf::29                      0                       # What read queue length does an incoming req see
system.mem_ctrls.rdQLenPdf::30                      0                       # What read queue length does an incoming req see
system.mem_ctrls.rdQLenPdf::31                      0                       # What read queue length does an incoming req see
system.mem_ctrls.wrQLenPdf::0                       0                       # What write queue length does an incoming req see
system.mem_ctrls.wrQLenPdf::1                       0                       # What write queue length does an incoming req see
system.mem_ctrls.wrQLenPdf::2                       0                       # What write queue length does an incoming req see
system.mem_ctrls.wrQLenPdf::3                       0                       # What write queue length does an incoming req see
system.mem_ctrls.wrQLenPdf::4                       0                       # What write queue length does an incoming req see
system.mem_ctrls.wrQLenPdf::5                       0                       # What write queue length does an incoming req see
system.mem_ctrls.wrQLenPdf::6                       0                       # What write queue length does an incoming req see
system.mem_ctrls.wrQLenPdf::7                       0                       # What write queue length does an incoming req see
system.mem_ctrls.wrQLenPdf::8                       0                       # What write queue length does an incoming req see
system.mem_ctrls.wrQLenPdf::9                       0                       # What write queue length does an incoming req see
system.mem_ctrls.wrQLenPdf::10                      0                       # What write queue length does an incoming req see
system.mem_ctrls.wrQLenPdf::11                      0                       # What write queue length does an incoming req see
system.mem_ctrls.wrQLenPdf::12                      0                       # What write queue length does an incoming req see
system.mem_ctrls.wrQLenPdf::13                      0                       # What write queue length does an incoming req see
system.mem_ctrls.wrQLenPdf::14                      0                       # What write queue length does an incoming req see
system.mem_ctrls.wrQLenPdf::15                   1061                       # What write queue length does an incoming req see
system.mem_ctrls.wrQLenPdf::16                   1158                       # What write queue length does an incoming req see
system.mem_ctrls.wrQLenPdf::17                  47633                       # What write queue length does an incoming req see
system.mem_ctrls.wrQLenPdf::18                  48213                       # What write queue length does an incoming req see
system.mem_ctrls.wrQLenPdf::19                  48229                       # What write queue length does an incoming req see
system.mem_ctrls.wrQLenPdf::20                  48239                       # What write queue length does an incoming req see
system.mem_ctrls.wrQLenPdf::21                  48243                       # What write queue length does an incoming req see
system.mem_ctrls.wrQLenPdf::22                  48249                       # What write queue length does an incoming req see
system.mem_ctrls.wrQLenPdf::23                  48248                       # What write queue length does an incoming req see
system.mem_ctrls.wrQLenPdf::24                  48243                       # What write queue length does an incoming req see
system.mem_ctrls.wrQLenPdf::25                  48229                       # What write queue length does an incoming req see
system.mem_ctrls.wrQLenPdf::26                  48230                       # What write queue length does an incoming req see
system.mem_ctrls.wrQLenPdf::27                  48227                       # What write queue length does an incoming req see
system.mem_ctrls.wrQLenPdf::28                  48219                       # What write queue length does an incoming req see
system.mem_ctrls.wrQLenPdf::29                  48207                       # What write queue length does an incoming req see
system.mem_ctrls.wrQLenPdf::30                  48196                       # What write queue length does an incoming req see
system.mem_ctrls.wrQLenPdf::31                  48189                       # What write queue length does an incoming req see
system.mem_ctrls.wrQLenPdf::32                  48185                       # What write queue length does an incoming req see
system.mem_ctrls.wrQLenPdf::33                      7                       # What write queue length does an incoming req see
system.mem_ctrls.wrQLenPdf::34                      1                       # What write queue length does an incoming req see
system.mem_ctrls.wrQLenPdf::35                      1                       # What write queue length does an incoming req see
system.mem_ctrls.wrQLenPdf::36                      1                       # What write queue length does an incoming req see
system.mem_ctrls.wrQLenPdf::37                      0                       # What write queue length does an incoming req see
system.mem_ctrls.wrQLenPdf::38                      0                       # What write queue length does an incoming req see
system.mem_ctrls.wrQLenPdf::39                      0                       # What write queue length does an incoming req see
system.mem_ctrls.wrQLenPdf::40                      0                       # What write queue length does an incoming req see
system.mem_ctrls.wrQLenPdf::41                      0                       # What write queue length does an incoming req see
system.mem_ctrls.wrQLenPdf::42                      0                       # What write queue length does an incoming req see
system.mem_ctrls.wrQLenPdf::43                      0                       # What write queue length does an incoming req see
system.mem_ctrls.wrQLenPdf::44                      0                       # What write queue length does an incoming req see
system.mem_ctrls.wrQLenPdf::45                      0                       # What write queue length does an incoming req see
system.mem_ctrls.wrQLenPdf::46                      0                       # What write queue length does an incoming req see
system.mem_ctrls.wrQLenPdf::47                      0                       # What write queue length does an incoming req see
system.mem_ctrls.wrQLenPdf::48                      0                       # What write queue length does an incoming req see
system.mem_ctrls.wrQLenPdf::49                      0                       # What write queue length does an incoming req see
system.mem_ctrls.wrQLenPdf::50                      0                       # What write queue length does an incoming req see
system.mem_ctrls.wrQLenPdf::51                      0                       # What write queue length does an incoming req see
system.mem_ctrls.wrQLenPdf::52                      0                       # What write queue length does an incoming req see
system.mem_ctrls.wrQLenPdf::53                      0                       # What write queue length does an incoming req see
system.mem_ctrls.wrQLenPdf::54                      0                       # What write queue length does an incoming req see
system.mem_ctrls.wrQLenPdf::55                      0                       # What write queue length does an incoming req see
system.mem_ctrls.wrQLenPdf::56                      0                       # What write queue length does an incoming req see
system.mem_ctrls.wrQLenPdf::57                      0                       # What write queue length does an incoming req see
system.mem_ctrls.wrQLenPdf::58                      0                       # What write queue length does an incoming req see
system.mem_ctrls.wrQLenPdf::59                      0                       # What write queue length does an incoming req see
system.mem_ctrls.wrQLenPdf::60                      0                       # What write queue length does an incoming req see
system.mem_ctrls.wrQLenPdf::61                      0                       # What write queue length does an incoming req see
system.mem_ctrls.wrQLenPdf::62                      0                       # What write queue length does an incoming req see
system.mem_ctrls.wrQLenPdf::63                      0                       # What write queue length does an incoming req see
system.mem_ctrls.bytesPerActivate::samples       911485                       # Bytes accessed per row activation
system.mem_ctrls.bytesPerActivate::mean    152.564327                       # Bytes accessed per row activation
system.mem_ctrls.bytesPerActivate::gmean   108.258180                       # Bytes accessed per row activation
system.mem_ctrls.bytesPerActivate::stdev   180.429129                       # Bytes accessed per row activation
system.mem_ctrls.bytesPerActivate::0-127       516082     56.62%     56.62% # Bytes accessed per row activation
system.mem_ctrls.bytesPerActivate::128-255       246015     26.99%     83.61% # Bytes accessed per row activation
system.mem_ctrls.bytesPerActivate::256-383        86473      9.49%     93.10% # Bytes accessed per row activation
system.mem_ctrls.bytesPerActivate::384-511        16320      1.79%     94.89% # Bytes accessed per row activation
system.mem_ctrls.bytesPerActivate::512-639        10277      1.13%     96.02% # Bytes accessed per row activation
system.mem_ctrls.bytesPerActivate::640-767         6995      0.77%     96.78% # Bytes accessed per row activation
system.mem_ctrls.bytesPerActivate::768-895         5960      0.65%     97.44% # Bytes accessed per row activation
system.mem_ctrls.bytesPerActivate::896-1023         4811      0.53%     97.96% # Bytes accessed per row activation
system.mem_ctrls.bytesPerActivate::1024-1151        18552      2.04%    100.00% # Bytes accessed per row activation
system.mem_ctrls.bytesPerActivate::total       911485                       # Bytes accessed per row activation
system.mem_ctrls.rdPerTurnAround::samples        48184                       # Reads before turning the bus around for writes
system.mem_ctrls.rdPerTurnAround::mean      29.047277                       # Reads before turning the bus around for writes
system.mem_ctrls.rdPerTurnAround::stdev     30.213422                       # Reads before turning the bus around for writes
system.mem_ctrls.rdPerTurnAround::0-127         47948     99.51%     99.51% # Reads before turning the bus around for writes
system.mem_ctrls.rdPerTurnAround::128-255          180      0.37%     99.88% # Reads before turning the bus around for writes
system.mem_ctrls.rdPerTurnAround::256-383           32      0.07%     99.95% # Reads before turning the bus around for writes
system.mem_ctrls.rdPerTurnAround::384-511            4      0.01%     99.96% # Reads before turning the bus around for writes
system.mem_ctrls.rdPerTurnAround::512-639            5      0.01%     99.97% # Reads before turning the bus around for writes
system.mem_ctrls.rdPerTurnAround::640-767            2      0.00%     99.97% # Reads before turning the bus around for writes
system.mem_ctrls.rdPerTurnAround::768-895            3      0.01%     99.98% # Reads before turning the bus around for writes
system.mem_ctrls.rdPerTurnAround::1152-1279            2      0.00%     99.98% # Reads before turning the bus around for writes
system.mem_ctrls.rdPerTurnAround::1280-1407            3      0.01%     99.99% # Reads before turning the bus around for writes
system.mem_ctrls.rdPerTurnAround::1408-1535            1      0.00%     99.99% # Reads before turning the bus around for writes
system.mem_ctrls.rdPerTurnAround::1536-1663            2      0.00%    100.00% # Reads before turning the bus around for writes
system.mem_ctrls.rdPerTurnAround::2048-2175            2      0.00%    100.00% # Reads before turning the bus around for writes
system.mem_ctrls.rdPerTurnAround::total         48184                       # Reads before turning the bus around for writes
system.mem_ctrls.wrPerTurnAround::samples        48184                       # Writes before turning the bus around for reads
system.mem_ctrls.wrPerTurnAround::mean      16.047132                       # Writes before turning the bus around for reads
system.mem_ctrls.wrPerTurnAround::gmean     16.044406                       # Writes before turning the bus around for reads
system.mem_ctrls.wrPerTurnAround::stdev      0.308375                       # Writes before turning the bus around for reads
system.mem_ctrls.wrPerTurnAround::16            47043     97.63%     97.63% # Writes before turning the bus around for reads
system.mem_ctrls.wrPerTurnAround::17               48      0.10%     97.73% # Writes before turning the bus around for reads
system.mem_ctrls.wrPerTurnAround::18             1074      2.23%     99.96% # Writes before turning the bus around for reads
system.mem_ctrls.wrPerTurnAround::19               13      0.03%     99.99% # Writes before turning the bus around for reads
system.mem_ctrls.wrPerTurnAround::21                3      0.01%     99.99% # Writes before turning the bus around for reads
system.mem_ctrls.wrPerTurnAround::22                2      0.00%    100.00% # Writes before turning the bus around for reads
system.mem_ctrls.wrPerTurnAround::25                1      0.00%    100.00% # Writes before turning the bus around for reads
system.mem_ctrls.wrPerTurnAround::total         48184                       # Writes before turning the bus around for reads
system.mem_ctrls.totQLat                  19448780646                       # Total ticks spent queuing
system.mem_ctrls.totMemAccLat             45691261896                       # Total ticks spent from burst creation until serviced by the DRAM
system.mem_ctrls.totBusLat                 6997995000                       # Total ticks spent in databus transfers
system.mem_ctrls.avgQLat                     13895.97                       # Average queueing delay per DRAM burst
system.mem_ctrls.avgBusLat                    5000.00                       # Average bus latency per DRAM burst
system.mem_ctrls.avgMemAccLat                32645.97                       # Average memory access latency per DRAM burst
system.mem_ctrls.avgRdBW                        37.10                       # Average DRAM read bandwidth in MiByte/s
system.mem_ctrls.avgWrBW                        20.49                       # Average achieved write bandwidth in MiByte/s
system.mem_ctrls.avgRdBWSys                     37.14                       # Average system read bandwidth in MiByte/s
system.mem_ctrls.avgWrBWSys                     20.49                       # Average system write bandwidth in MiByte/s
system.mem_ctrls.peakBW                      12800.00                       # Theoretical peak bandwidth in MiByte/s
system.mem_ctrls.busUtil                         0.45                       # Data bus utilization in percentage
system.mem_ctrls.busUtilRead                     0.29                       # Data bus utilization in percentage for reads
system.mem_ctrls.busUtilWrite                    0.16                       # Data bus utilization in percentage for writes
system.mem_ctrls.avgRdQLen                       1.00                       # Average read queue length when enqueuing
system.mem_ctrls.avgWrQLen                      25.46                       # Average write queue length when enqueuing
system.mem_ctrls.readRowHits                  1011737                       # Number of row buffer hits during reads
system.mem_ctrls.writeRowHits                  249589                       # Number of row buffer hits during writes
system.mem_ctrls.readRowHitRate                 72.29                       # Row buffer hit rate for reads
system.mem_ctrls.writeRowHitRate                32.28                       # Row buffer hit rate for writes
system.mem_ctrls.avgGap                    1110526.10                       # Average gap between requests
system.mem_ctrls.pageHitRate                    58.05                       # Row buffer hit rate, read and write combined
system.mem_ctrls_0.actEnergy               3583447560                       # Energy for activate commands per rank (pJ)
system.mem_ctrls_0.preEnergy               1955254125                       # Energy for precharge commands per rank (pJ)
system.mem_ctrls_0.readEnergy              5707267800                       # Energy for read commands per rank (pJ)
system.mem_ctrls_0.writeEnergy             2587833360                       # Energy for write commands per rank (pJ)
system.mem_ctrls_0.refreshEnergy         158540528640                       # Energy for refresh commands per rank (pJ)
system.mem_ctrls_0.actBackEnergy         365974739505                       # Energy for active background per rank (pJ)
system.mem_ctrls_0.preBackEnergy         1135359714750                       # Energy for precharge background per rank (pJ)
system.mem_ctrls_0.totalEnergy           1673708785740                       # Total energy per rank (pJ)
system.mem_ctrls_0.averagePower            689.530374                       # Core power per rank (mW)
system.mem_ctrls_0.memoryStateTime::IDLE 1883353487501                       # Time in different power states
system.mem_ctrls_0.memoryStateTime::REF   80631200000                       # Time in different power states
system.mem_ctrls_0.memoryStateTime::PRE_PDN            0                       # Time in different power states
system.mem_ctrls_0.memoryStateTime::ACT  450692381749                       # Time in different power states
system.mem_ctrls_0.memoryStateTime::ACT_PDN            0                       # Time in different power states
system.mem_ctrls_1.actEnergy               3463848360                       # Energy for activate commands per rank (pJ)
system.mem_ctrls_1.preEnergy               1889996625                       # Energy for precharge commands per rank (pJ)
system.mem_ctrls_1.readEnergy              5585275800                       # Energy for read commands per rank (pJ)
system.mem_ctrls_1.writeEnergy             2528191440                       # Energy for write commands per rank (pJ)
system.mem_ctrls_1.refreshEnergy         158540528640                       # Energy for refresh commands per rank (pJ)
system.mem_ctrls_1.actBackEnergy         362226415230                       # Energy for active background per rank (pJ)
system.mem_ctrls_1.preBackEnergy         1138647718500                       # Energy for precharge background per rank (pJ)
system.mem_ctrls_1.totalEnergy           1672881974595                       # Total energy per rank (pJ)
system.mem_ctrls_1.averagePower            689.189747                       # Core power per rank (mW)
system.mem_ctrls_1.memoryStateTime::IDLE 1888296946251                       # Time in different power states
system.mem_ctrls_1.memoryStateTime::REF   80631200000                       # Time in different power states
system.mem_ctrls_1.memoryStateTime::PRE_PDN            0                       # Time in different power states
system.mem_ctrls_1.memoryStateTime::ACT  445743703749                       # Time in different power states
system.mem_ctrls_1.memoryStateTime::ACT_PDN            0                       # Time in different power states
system.cpu_voltage_domain.voltage                   1                       # Voltage in Volts
system.cpu_clk_domain.clock                       500                       # Clock period in ticks
system.cpu0.apic_clk_domain.clock                8000                       # Clock period in ticks
system.cpu0.numCycles                      4829548095                       # number of cpu cycles simulated
system.cpu0.numWorkItemsStarted                     0                       # number of work items this cpu started
system.cpu0.numWorkItemsCompleted                   0                       # number of work items this cpu completed
system.cpu0.kern.inst.arm                           0                       # number of arm instructions executed
system.cpu0.kern.inst.quiesce                       0                       # number of quiesce instructions executed
system.cpu0.committedInsts                    3913686                       # Number of instructions committed
system.cpu0.committedOps                      8107648                       # Number of ops (including micro ops) committed
system.cpu0.num_int_alu_accesses              7884793                       # Number of integer alu accesses
system.cpu0.num_fp_alu_accesses                   372                       # Number of float alu accesses
system.cpu0.num_func_calls                     189878                       # number of times a function call or return occured
system.cpu0.num_conditional_control_insts       625217                       # number of instructions that are conditional controls
system.cpu0.num_int_insts                     7884793                       # number of integer instructions
system.cpu0.num_fp_insts                          372                       # number of float instructions
system.cpu0.num_int_register_reads           15392470                       # number of times the integer registers were read
system.cpu0.num_int_register_writes           6496811                       # number of times the integer registers were written
system.cpu0.num_fp_register_reads                 596                       # number of times the floating registers were read
system.cpu0.num_fp_register_writes                261                       # number of times the floating registers were written
system.cpu0.num_cc_register_reads             4861565                       # number of times the CC registers were read
system.cpu0.num_cc_register_writes            2986314                       # number of times the CC registers were written
system.cpu0.num_mem_refs                      1658239                       # number of memory refs
system.cpu0.num_load_insts                    1025280                       # Number of load instructions
system.cpu0.num_store_insts                    632959                       # Number of store instructions
system.cpu0.num_idle_cycles              4807371184.388639                       # Number of idle cycles
system.cpu0.num_busy_cycles              22176910.611360                       # Number of busy cycles
system.cpu0.not_idle_fraction                0.004592                       # Percentage of non-idle cycles
system.cpu0.idle_fraction                    0.995408                       # Percentage of idle cycles
system.cpu0.Branches                           880052                       # Number of branches fetched
system.cpu0.op_class::No_OpClass                81738      1.01%      1.01% # Class of executed instruction
system.cpu0.op_class::IntAlu                  6332598     78.11%     79.11% # Class of executed instruction
system.cpu0.op_class::IntMult                    9030      0.11%     79.23% # Class of executed instruction
system.cpu0.op_class::IntDiv                    25885      0.32%     79.54% # Class of executed instruction
system.cpu0.op_class::FloatAdd                    244      0.00%     79.55% # Class of executed instruction
system.cpu0.op_class::FloatCmp                      0      0.00%     79.55% # Class of executed instruction
system.cpu0.op_class::FloatCvt                      0      0.00%     79.55% # Class of executed instruction
system.cpu0.op_class::FloatMult                     0      0.00%     79.55% # Class of executed instruction
system.cpu0.op_class::FloatDiv                      0      0.00%     79.55% # Class of executed instruction
system.cpu0.op_class::FloatSqrt                     0      0.00%     79.55% # Class of executed instruction
system.cpu0.op_class::SimdAdd                       0      0.00%     79.55% # Class of executed instruction
system.cpu0.op_class::SimdAddAcc                    0      0.00%     79.55% # Class of executed instruction
system.cpu0.op_class::SimdAlu                       0      0.00%     79.55% # Class of executed instruction
system.cpu0.op_class::SimdCmp                       0      0.00%     79.55% # Class of executed instruction
system.cpu0.op_class::SimdCvt                       0      0.00%     79.55% # Class of executed instruction
system.cpu0.op_class::SimdMisc                      0      0.00%     79.55% # Class of executed instruction
system.cpu0.op_class::SimdMult                      0      0.00%     79.55% # Class of executed instruction
system.cpu0.op_class::SimdMultAcc                   0      0.00%     79.55% # Class of executed instruction
system.cpu0.op_class::SimdShift                     0      0.00%     79.55% # Class of executed instruction
system.cpu0.op_class::SimdShiftAcc                  0      0.00%     79.55% # Class of executed instruction
system.cpu0.op_class::SimdSqrt                      0      0.00%     79.55% # Class of executed instruction
system.cpu0.op_class::SimdFloatAdd                  0      0.00%     79.55% # Class of executed instruction
system.cpu0.op_class::SimdFloatAlu                  0      0.00%     79.55% # Class of executed instruction
system.cpu0.op_class::SimdFloatCmp                  0      0.00%     79.55% # Class of executed instruction
system.cpu0.op_class::SimdFloatCvt                  0      0.00%     79.55% # Class of executed instruction
system.cpu0.op_class::SimdFloatDiv                  0      0.00%     79.55% # Class of executed instruction
system.cpu0.op_class::SimdFloatMisc                 0      0.00%     79.55% # Class of executed instruction
system.cpu0.op_class::SimdFloatMult                 0      0.00%     79.55% # Class of executed instruction
system.cpu0.op_class::SimdFloatMultAcc              0      0.00%     79.55% # Class of executed instruction
system.cpu0.op_class::SimdFloatSqrt                 0      0.00%     79.55% # Class of executed instruction
system.cpu0.op_class::MemRead                 1025280     12.65%     92.19% # Class of executed instruction
system.cpu0.op_class::MemWrite                 632959      7.81%    100.00% # Class of executed instruction
system.cpu0.op_class::IprAccess                     0      0.00%    100.00% # Class of executed instruction
system.cpu0.op_class::InstPrefetch                  0      0.00%    100.00% # Class of executed instruction
system.cpu0.op_class::total                   8107734                       # Class of executed instruction
system.cpu1.apic_clk_domain.clock                8000                       # Clock period in ticks
system.cpu1.numCycles                      4830658954                       # number of cpu cycles simulated
system.cpu1.numWorkItemsStarted                     0                       # number of work items this cpu started
system.cpu1.numWorkItemsCompleted                   0                       # number of work items this cpu completed
system.cpu1.kern.inst.arm                           0                       # number of arm instructions executed
system.cpu1.kern.inst.quiesce                       0                       # number of quiesce instructions executed
system.cpu1.committedInsts                 1297739789                       # Number of instructions committed
system.cpu1.committedOps                   2349211569                       # Number of ops (including micro ops) committed
system.cpu1.num_int_alu_accesses           1507231259                       # Number of integer alu accesses
system.cpu1.num_fp_alu_accesses            1130300518                       # Number of float alu accesses
system.cpu1.num_func_calls                     803371                       # number of times a function call or return occured
system.cpu1.num_conditional_control_insts    160946249                       # number of instructions that are conditional controls
system.cpu1.num_int_insts                  1507231259                       # number of integer instructions
system.cpu1.num_fp_insts                   1130300518                       # number of float instructions
system.cpu1.num_int_register_reads         2941066179                       # number of times the integer registers were read
system.cpu1.num_int_register_writes        1034207544                       # number of times the integer registers were written
system.cpu1.num_fp_register_reads          1382500686                       # number of times the floating registers were read
system.cpu1.num_fp_register_writes         1075410587                       # number of times the floating registers were written
system.cpu1.num_cc_register_reads           939444744                       # number of times the CC registers were read
system.cpu1.num_cc_register_writes          528256612                       # number of times the CC registers were written
system.cpu1.num_mem_refs                    388405338                       # number of memory refs
system.cpu1.num_load_insts                  350003507                       # Number of load instructions
system.cpu1.num_store_insts                  38401831                       # Number of store instructions
system.cpu1.num_idle_cycles              26129316.996454                       # Number of idle cycles
system.cpu1.num_busy_cycles              4804529637.003546                       # Number of busy cycles
system.cpu1.not_idle_fraction                0.994591                       # Percentage of non-idle cycles
system.cpu1.idle_fraction                    0.005409                       # Percentage of idle cycles
system.cpu1.Branches                        166342204                       # Number of branches fetched
system.cpu1.op_class::No_OpClass              3904465      0.17%      0.17% # Class of executed instruction
system.cpu1.op_class::IntAlu               1229204050     52.32%     52.49% # Class of executed instruction
system.cpu1.op_class::IntMult                 4268678      0.18%     52.67% # Class of executed instruction
system.cpu1.op_class::IntDiv                      931      0.00%     52.67% # Class of executed instruction
system.cpu1.op_class::FloatAdd              723444434     30.79%     83.47% # Class of executed instruction
system.cpu1.op_class::FloatCmp                      0      0.00%     83.47% # Class of executed instruction
system.cpu1.op_class::FloatCvt                      0      0.00%     83.47% # Class of executed instruction
system.cpu1.op_class::FloatMult                     0      0.00%     83.47% # Class of executed instruction
system.cpu1.op_class::FloatDiv                      0      0.00%     83.47% # Class of executed instruction
system.cpu1.op_class::FloatSqrt                     0      0.00%     83.47% # Class of executed instruction
system.cpu1.op_class::SimdAdd                       0      0.00%     83.47% # Class of executed instruction
system.cpu1.op_class::SimdAddAcc                    0      0.00%     83.47% # Class of executed instruction
system.cpu1.op_class::SimdAlu                       0      0.00%     83.47% # Class of executed instruction
system.cpu1.op_class::SimdCmp                       0      0.00%     83.47% # Class of executed instruction
system.cpu1.op_class::SimdCvt                       0      0.00%     83.47% # Class of executed instruction
system.cpu1.op_class::SimdMisc                      0      0.00%     83.47% # Class of executed instruction
system.cpu1.op_class::SimdMult                      0      0.00%     83.47% # Class of executed instruction
system.cpu1.op_class::SimdMultAcc                   0      0.00%     83.47% # Class of executed instruction
system.cpu1.op_class::SimdShift                     0      0.00%     83.47% # Class of executed instruction
system.cpu1.op_class::SimdShiftAcc                  0      0.00%     83.47% # Class of executed instruction
system.cpu1.op_class::SimdSqrt                      0      0.00%     83.47% # Class of executed instruction
system.cpu1.op_class::SimdFloatAdd                  0      0.00%     83.47% # Class of executed instruction
system.cpu1.op_class::SimdFloatAlu                  0      0.00%     83.47% # Class of executed instruction
system.cpu1.op_class::SimdFloatCmp                  0      0.00%     83.47% # Class of executed instruction
system.cpu1.op_class::SimdFloatCvt                  0      0.00%     83.47% # Class of executed instruction
system.cpu1.op_class::SimdFloatDiv                  0      0.00%     83.47% # Class of executed instruction
system.cpu1.op_class::SimdFloatMisc                 0      0.00%     83.47% # Class of executed instruction
system.cpu1.op_class::SimdFloatMult                 0      0.00%     83.47% # Class of executed instruction
system.cpu1.op_class::SimdFloatMultAcc              0      0.00%     83.47% # Class of executed instruction
system.cpu1.op_class::SimdFloatSqrt                 0      0.00%     83.47% # Class of executed instruction
system.cpu1.op_class::MemRead               350003507     14.90%     98.37% # Class of executed instruction
system.cpu1.op_class::MemWrite               38401831      1.63%    100.00% # Class of executed instruction
system.cpu1.op_class::IprAccess                     0      0.00%    100.00% # Class of executed instruction
system.cpu1.op_class::InstPrefetch                  0      0.00%    100.00% # Class of executed instruction
system.cpu1.op_class::total                2349227896                       # Class of executed instruction
system.cpu2.apic_clk_domain.clock                8000                       # Clock period in ticks
system.cpu2.numCycles                      4826885863                       # number of cpu cycles simulated
system.cpu2.numWorkItemsStarted                     0                       # number of work items this cpu started
system.cpu2.numWorkItemsCompleted                   0                       # number of work items this cpu completed
system.cpu2.kern.inst.arm                           0                       # number of arm instructions executed
system.cpu2.kern.inst.quiesce                       0                       # number of quiesce instructions executed
system.cpu2.committedInsts                    4689916                       # Number of instructions committed
system.cpu2.committedOps                      9446607                       # Number of ops (including micro ops) committed
system.cpu2.num_int_alu_accesses              9275242                       # Number of integer alu accesses
system.cpu2.num_fp_alu_accesses                  1778                       # Number of float alu accesses
system.cpu2.num_func_calls                     245060                       # number of times a function call or return occured
system.cpu2.num_conditional_control_insts       805658                       # number of instructions that are conditional controls
system.cpu2.num_int_insts                     9275242                       # number of integer instructions
system.cpu2.num_fp_insts                         1778                       # number of float instructions
system.cpu2.num_int_register_reads           18379321                       # number of times the integer registers were read
system.cpu2.num_int_register_writes           7555983                       # number of times the integer registers were written
system.cpu2.num_fp_register_reads                2988                       # number of times the floating registers were read
system.cpu2.num_fp_register_writes               1416                       # number of times the floating registers were written
system.cpu2.num_cc_register_reads             6035859                       # number of times the CC registers were read
system.cpu2.num_cc_register_writes            3213318                       # number of times the CC registers were written
system.cpu2.num_mem_refs                      2109488                       # number of memory refs
system.cpu2.num_load_insts                    1367720                       # Number of load instructions
system.cpu2.num_store_insts                    741768                       # Number of store instructions
system.cpu2.num_idle_cycles              4802012933.922994                       # Number of idle cycles
system.cpu2.num_busy_cycles              24872929.077006                       # Number of busy cycles
system.cpu2.not_idle_fraction                0.005153                       # Percentage of non-idle cycles
system.cpu2.idle_fraction                    0.994847                       # Percentage of idle cycles
system.cpu2.Branches                          1096482                       # Number of branches fetched
system.cpu2.op_class::No_OpClass                74913      0.79%      0.79% # Class of executed instruction
system.cpu2.op_class::IntAlu                  7227302     76.51%     77.30% # Class of executed instruction
system.cpu2.op_class::IntMult                    8462      0.09%     77.39% # Class of executed instruction
system.cpu2.op_class::IntDiv                    25188      0.27%     77.66% # Class of executed instruction
system.cpu2.op_class::FloatAdd                   1344      0.01%     77.67% # Class of executed instruction
system.cpu2.op_class::FloatCmp                      0      0.00%     77.67% # Class of executed instruction
system.cpu2.op_class::FloatCvt                      0      0.00%     77.67% # Class of executed instruction
system.cpu2.op_class::FloatMult                     0      0.00%     77.67% # Class of executed instruction
system.cpu2.op_class::FloatDiv                      0      0.00%     77.67% # Class of executed instruction
system.cpu2.op_class::FloatSqrt                     0      0.00%     77.67% # Class of executed instruction
system.cpu2.op_class::SimdAdd                       0      0.00%     77.67% # Class of executed instruction
system.cpu2.op_class::SimdAddAcc                    0      0.00%     77.67% # Class of executed instruction
system.cpu2.op_class::SimdAlu                       0      0.00%     77.67% # Class of executed instruction
system.cpu2.op_class::SimdCmp                       0      0.00%     77.67% # Class of executed instruction
system.cpu2.op_class::SimdCvt                       0      0.00%     77.67% # Class of executed instruction
system.cpu2.op_class::SimdMisc                      0      0.00%     77.67% # Class of executed instruction
system.cpu2.op_class::SimdMult                      0      0.00%     77.67% # Class of executed instruction
system.cpu2.op_class::SimdMultAcc                   0      0.00%     77.67% # Class of executed instruction
system.cpu2.op_class::SimdShift                     0      0.00%     77.67% # Class of executed instruction
system.cpu2.op_class::SimdShiftAcc                  0      0.00%     77.67% # Class of executed instruction
system.cpu2.op_class::SimdSqrt                      0      0.00%     77.67% # Class of executed instruction
system.cpu2.op_class::SimdFloatAdd                  0      0.00%     77.67% # Class of executed instruction
system.cpu2.op_class::SimdFloatAlu                  0      0.00%     77.67% # Class of executed instruction
system.cpu2.op_class::SimdFloatCmp                  0      0.00%     77.67% # Class of executed instruction
system.cpu2.op_class::SimdFloatCvt                  0      0.00%     77.67% # Class of executed instruction
system.cpu2.op_class::SimdFloatDiv                  0      0.00%     77.67% # Class of executed instruction
system.cpu2.op_class::SimdFloatMisc                 0      0.00%     77.67% # Class of executed instruction
system.cpu2.op_class::SimdFloatMult                 0      0.00%     77.67% # Class of executed instruction
system.cpu2.op_class::SimdFloatMultAcc              0      0.00%     77.67% # Class of executed instruction
system.cpu2.op_class::SimdFloatSqrt                 0      0.00%     77.67% # Class of executed instruction
system.cpu2.op_class::MemRead                 1367720     14.48%     92.15% # Class of executed instruction
system.cpu2.op_class::MemWrite                 741768      7.85%    100.00% # Class of executed instruction
system.cpu2.op_class::IprAccess                     0      0.00%    100.00% # Class of executed instruction
system.cpu2.op_class::InstPrefetch                  0      0.00%    100.00% # Class of executed instruction
system.cpu2.op_class::total                   9446697                       # Class of executed instruction
system.cpu3.apic_clk_domain.clock                8000                       # Clock period in ticks
system.cpu3.numCycles                      4834671277                       # number of cpu cycles simulated
system.cpu3.numWorkItemsStarted                     0                       # number of work items this cpu started
system.cpu3.numWorkItemsCompleted                   0                       # number of work items this cpu completed
system.cpu3.kern.inst.arm                           0                       # number of arm instructions executed
system.cpu3.kern.inst.quiesce                       0                       # number of quiesce instructions executed
system.cpu3.committedInsts                    1928856                       # Number of instructions committed
system.cpu3.committedOps                      4123029                       # Number of ops (including micro ops) committed
system.cpu3.num_int_alu_accesses              4039058                       # Number of integer alu accesses
system.cpu3.num_fp_alu_accesses                    39                       # Number of float alu accesses
system.cpu3.num_func_calls                     109426                       # number of times a function call or return occured
system.cpu3.num_conditional_control_insts       320815                       # number of instructions that are conditional controls
system.cpu3.num_int_insts                     4039058                       # number of integer instructions
system.cpu3.num_fp_insts                           39                       # number of float instructions
system.cpu3.num_int_register_reads            8063886                       # number of times the integer registers were read
system.cpu3.num_int_register_writes           3332728                       # number of times the integer registers were written
system.cpu3.num_fp_register_reads                  63                       # number of times the floating registers were read
system.cpu3.num_fp_register_writes                 31                       # number of times the floating registers were written
system.cpu3.num_cc_register_reads             2469217                       # number of times the CC registers were read
system.cpu3.num_cc_register_writes            1263907                       # number of times the CC registers were written
system.cpu3.num_mem_refs                       934388                       # number of memory refs
system.cpu3.num_load_insts                     581675                       # Number of load instructions
system.cpu3.num_store_insts                    352713                       # Number of store instructions
system.cpu3.num_idle_cycles              4824364689.443760                       # Number of idle cycles
system.cpu3.num_busy_cycles              10306587.556240                       # Number of busy cycles
system.cpu3.not_idle_fraction                0.002132                       # Percentage of non-idle cycles
system.cpu3.idle_fraction                    0.997868                       # Percentage of idle cycles
system.cpu3.Branches                           465458                       # Number of branches fetched
system.cpu3.op_class::No_OpClass                68848      1.67%      1.67% # Class of executed instruction
system.cpu3.op_class::IntAlu                  3087882     74.89%     76.56% # Class of executed instruction
system.cpu3.op_class::IntMult                    7635      0.19%     76.75% # Class of executed instruction
system.cpu3.op_class::IntDiv                    24268      0.59%     77.34% # Class of executed instruction
system.cpu3.op_class::FloatAdd                     30      0.00%     77.34% # Class of executed instruction
system.cpu3.op_class::FloatCmp                      0      0.00%     77.34% # Class of executed instruction
system.cpu3.op_class::FloatCvt                      0      0.00%     77.34% # Class of executed instruction
system.cpu3.op_class::FloatMult                     0      0.00%     77.34% # Class of executed instruction
system.cpu3.op_class::FloatDiv                      0      0.00%     77.34% # Class of executed instruction
system.cpu3.op_class::FloatSqrt                     0      0.00%     77.34% # Class of executed instruction
system.cpu3.op_class::SimdAdd                       0      0.00%     77.34% # Class of executed instruction
system.cpu3.op_class::SimdAddAcc                    0      0.00%     77.34% # Class of executed instruction
system.cpu3.op_class::SimdAlu                       0      0.00%     77.34% # Class of executed instruction
system.cpu3.op_class::SimdCmp                       0      0.00%     77.34% # Class of executed instruction
system.cpu3.op_class::SimdCvt                       0      0.00%     77.34% # Class of executed instruction
system.cpu3.op_class::SimdMisc                      0      0.00%     77.34% # Class of executed instruction
system.cpu3.op_class::SimdMult                      0      0.00%     77.34% # Class of executed instruction
system.cpu3.op_class::SimdMultAcc                   0      0.00%     77.34% # Class of executed instruction
system.cpu3.op_class::SimdShift                     0      0.00%     77.34% # Class of executed instruction
system.cpu3.op_class::SimdShiftAcc                  0      0.00%     77.34% # Class of executed instruction
system.cpu3.op_class::SimdSqrt                      0      0.00%     77.34% # Class of executed instruction
system.cpu3.op_class::SimdFloatAdd                  0      0.00%     77.34% # Class of executed instruction
system.cpu3.op_class::SimdFloatAlu                  0      0.00%     77.34% # Class of executed instruction
system.cpu3.op_class::SimdFloatCmp                  0      0.00%     77.34% # Class of executed instruction
system.cpu3.op_class::SimdFloatCvt                  0      0.00%     77.34% # Class of executed instruction
system.cpu3.op_class::SimdFloatDiv                  0      0.00%     77.34% # Class of executed instruction
system.cpu3.op_class::SimdFloatMisc                 0      0.00%     77.34% # Class of executed instruction
system.cpu3.op_class::SimdFloatMult                 0      0.00%     77.34% # Class of executed instruction
system.cpu3.op_class::SimdFloatMultAcc              0      0.00%     77.34% # Class of executed instruction
system.cpu3.op_class::SimdFloatSqrt                 0      0.00%     77.34% # Class of executed instruction
system.cpu3.op_class::MemRead                  581675     14.11%     91.45% # Class of executed instruction
system.cpu3.op_class::MemWrite                 352713      8.55%    100.00% # Class of executed instruction
system.cpu3.op_class::IprAccess                     0      0.00%    100.00% # Class of executed instruction
system.cpu3.op_class::InstPrefetch                  0      0.00%    100.00% # Class of executed instruction
system.cpu3.op_class::total                   4123051                       # Class of executed instruction
system.iobus.trans_dist::ReadReq                  408                       # Transaction distribution
system.iobus.trans_dist::ReadResp                 408                       # Transaction distribution
system.iobus.trans_dist::WriteReq                3130                       # Transaction distribution
system.iobus.trans_dist::WriteResp               3130                       # Transaction distribution
system.iobus.trans_dist::MessageReq                57                       # Transaction distribution
system.iobus.trans_dist::MessageResp               57                       # Transaction distribution
system.iobus.pkt_count_system.pc.south_bridge.io_apic.int_master::system.ruby.l0_cntrl0.sequencer.pio-slave-port           24                       # Packet count per connected master and slave (bytes)
system.iobus.pkt_count_system.pc.south_bridge.io_apic.int_master::system.ruby.l0_cntrl1.sequencer.pio-slave-port           22                       # Packet count per connected master and slave (bytes)
system.iobus.pkt_count_system.pc.south_bridge.io_apic.int_master::system.ruby.l0_cntrl2.sequencer.pio-slave-port           22                       # Packet count per connected master and slave (bytes)
system.iobus.pkt_count_system.pc.south_bridge.io_apic.int_master::system.ruby.l0_cntrl3.sequencer.pio-slave-port           24                       # Packet count per connected master and slave (bytes)
system.iobus.pkt_count_system.pc.south_bridge.io_apic.int_master::total           92                       # Packet count per connected master and slave (bytes)
system.iobus.pkt_count_system.ruby.l0_cntrl0.sequencer.mem-master-port::system.pc.south_bridge.ide.pio          460                       # Packet count per connected master and slave (bytes)
system.iobus.pkt_count_system.ruby.l0_cntrl0.sequencer.mem-master-port::system.pc.south_bridge.io_apic.pio           16                       # Packet count per connected master and slave (bytes)
system.iobus.pkt_count_system.ruby.l0_cntrl0.sequencer.mem-master-port::system.ruby.l0_cntrl0.sequencer.pio-slave-port         1262                       # Packet count per connected master and slave (bytes)
system.iobus.pkt_count_system.ruby.l0_cntrl0.sequencer.mem-master-port::system.ruby.l0_cntrl1.sequencer.pio-slave-port            6                       # Packet count per connected master and slave (bytes)
system.iobus.pkt_count_system.ruby.l0_cntrl0.sequencer.mem-master-port::system.ruby.l0_cntrl3.sequencer.pio-slave-port            2                       # Packet count per connected master and slave (bytes)
system.iobus.pkt_count_system.ruby.l0_cntrl0.sequencer.mem-master-port::total         1746                       # Packet count per connected master and slave (bytes)
system.iobus.pkt_count_system.ruby.l0_cntrl1.sequencer.mem-master-port::system.pc.south_bridge.ide.pio          596                       # Packet count per connected master and slave (bytes)
system.iobus.pkt_count_system.ruby.l0_cntrl1.sequencer.mem-master-port::system.pc.south_bridge.io_apic.pio            8                       # Packet count per connected master and slave (bytes)
system.iobus.pkt_count_system.ruby.l0_cntrl1.sequencer.mem-master-port::system.ruby.l0_cntrl0.sequencer.pio-slave-port            4                       # Packet count per connected master and slave (bytes)
system.iobus.pkt_count_system.ruby.l0_cntrl1.sequencer.mem-master-port::system.ruby.l0_cntrl1.sequencer.pio-slave-port         1256                       # Packet count per connected master and slave (bytes)
system.iobus.pkt_count_system.ruby.l0_cntrl1.sequencer.mem-master-port::system.ruby.l0_cntrl2.sequencer.pio-slave-port            2                       # Packet count per connected master and slave (bytes)
system.iobus.pkt_count_system.ruby.l0_cntrl1.sequencer.mem-master-port::total         1866                       # Packet count per connected master and slave (bytes)
system.iobus.pkt_count_system.ruby.l0_cntrl2.sequencer.mem-master-port::system.pc.south_bridge.ide.pio          324                       # Packet count per connected master and slave (bytes)
system.iobus.pkt_count_system.ruby.l0_cntrl2.sequencer.mem-master-port::system.pc.south_bridge.io_apic.pio            6                       # Packet count per connected master and slave (bytes)
system.iobus.pkt_count_system.ruby.l0_cntrl2.sequencer.mem-master-port::system.pc.com_1.pio           22                       # Packet count per connected master and slave (bytes)
system.iobus.pkt_count_system.ruby.l0_cntrl2.sequencer.mem-master-port::system.ruby.l0_cntrl0.sequencer.pio-slave-port            2                       # Packet count per connected master and slave (bytes)
system.iobus.pkt_count_system.ruby.l0_cntrl2.sequencer.mem-master-port::system.ruby.l0_cntrl1.sequencer.pio-slave-port            2                       # Packet count per connected master and slave (bytes)
system.iobus.pkt_count_system.ruby.l0_cntrl2.sequencer.mem-master-port::system.ruby.l0_cntrl2.sequencer.pio-slave-port         1248                       # Packet count per connected master and slave (bytes)
system.iobus.pkt_count_system.ruby.l0_cntrl2.sequencer.mem-master-port::system.ruby.l0_cntrl3.sequencer.pio-slave-port            2                       # Packet count per connected master and slave (bytes)
system.iobus.pkt_count_system.ruby.l0_cntrl2.sequencer.mem-master-port::total         1606                       # Packet count per connected master and slave (bytes)
system.iobus.pkt_count_system.ruby.l0_cntrl3.sequencer.mem-master-port::system.pc.south_bridge.ide.pio          460                       # Packet count per connected master and slave (bytes)
system.iobus.pkt_count_system.ruby.l0_cntrl3.sequencer.mem-master-port::system.pc.south_bridge.io_apic.pio           14                       # Packet count per connected master and slave (bytes)
system.iobus.pkt_count_system.ruby.l0_cntrl3.sequencer.mem-master-port::system.pc.com_1.pio          162                       # Packet count per connected master and slave (bytes)
system.iobus.pkt_count_system.ruby.l0_cntrl3.sequencer.mem-master-port::system.ruby.l0_cntrl0.sequencer.pio-slave-port            2                       # Packet count per connected master and slave (bytes)
system.iobus.pkt_count_system.ruby.l0_cntrl3.sequencer.mem-master-port::system.ruby.l0_cntrl3.sequencer.pio-slave-port         1242                       # Packet count per connected master and slave (bytes)
system.iobus.pkt_count_system.ruby.l0_cntrl3.sequencer.mem-master-port::total         1880                       # Packet count per connected master and slave (bytes)
system.iobus.pkt_count::total                    7190                       # Packet count per connected master and slave (bytes)
system.iobus.pkt_size_system.pc.south_bridge.io_apic.int_master::system.ruby.l0_cntrl0.sequencer.pio-slave-port           48                       # Cumulative packet size per connected master and slave (bytes)
system.iobus.pkt_size_system.pc.south_bridge.io_apic.int_master::system.ruby.l0_cntrl1.sequencer.pio-slave-port           44                       # Cumulative packet size per connected master and slave (bytes)
system.iobus.pkt_size_system.pc.south_bridge.io_apic.int_master::system.ruby.l0_cntrl2.sequencer.pio-slave-port           44                       # Cumulative packet size per connected master and slave (bytes)
system.iobus.pkt_size_system.pc.south_bridge.io_apic.int_master::system.ruby.l0_cntrl3.sequencer.pio-slave-port           48                       # Cumulative packet size per connected master and slave (bytes)
system.iobus.pkt_size_system.pc.south_bridge.io_apic.int_master::total          184                       # Cumulative packet size per connected master and slave (bytes)
system.iobus.pkt_size_system.ruby.l0_cntrl0.sequencer.mem-master-port::system.pc.south_bridge.ide.pio          260                       # Cumulative packet size per connected master and slave (bytes)
system.iobus.pkt_size_system.ruby.l0_cntrl0.sequencer.mem-master-port::system.pc.south_bridge.io_apic.pio           32                       # Cumulative packet size per connected master and slave (bytes)
system.iobus.pkt_size_system.ruby.l0_cntrl0.sequencer.mem-master-port::system.ruby.l0_cntrl0.sequencer.pio-slave-port         2524                       # Cumulative packet size per connected master and slave (bytes)
system.iobus.pkt_size_system.ruby.l0_cntrl0.sequencer.mem-master-port::system.ruby.l0_cntrl1.sequencer.pio-slave-port           12                       # Cumulative packet size per connected master and slave (bytes)
system.iobus.pkt_size_system.ruby.l0_cntrl0.sequencer.mem-master-port::system.ruby.l0_cntrl3.sequencer.pio-slave-port            4                       # Cumulative packet size per connected master and slave (bytes)
system.iobus.pkt_size_system.ruby.l0_cntrl0.sequencer.mem-master-port::total         2832                       # Cumulative packet size per connected master and slave (bytes)
system.iobus.pkt_size_system.ruby.l0_cntrl1.sequencer.mem-master-port::system.pc.south_bridge.ide.pio          340                       # Cumulative packet size per connected master and slave (bytes)
system.iobus.pkt_size_system.ruby.l0_cntrl1.sequencer.mem-master-port::system.pc.south_bridge.io_apic.pio           16                       # Cumulative packet size per connected master and slave (bytes)
system.iobus.pkt_size_system.ruby.l0_cntrl1.sequencer.mem-master-port::system.ruby.l0_cntrl0.sequencer.pio-slave-port            8                       # Cumulative packet size per connected master and slave (bytes)
system.iobus.pkt_size_system.ruby.l0_cntrl1.sequencer.mem-master-port::system.ruby.l0_cntrl1.sequencer.pio-slave-port         2512                       # Cumulative packet size per connected master and slave (bytes)
system.iobus.pkt_size_system.ruby.l0_cntrl1.sequencer.mem-master-port::system.ruby.l0_cntrl2.sequencer.pio-slave-port            4                       # Cumulative packet size per connected master and slave (bytes)
system.iobus.pkt_size_system.ruby.l0_cntrl1.sequencer.mem-master-port::total         2880                       # Cumulative packet size per connected master and slave (bytes)
system.iobus.pkt_size_system.ruby.l0_cntrl2.sequencer.mem-master-port::system.pc.south_bridge.ide.pio          180                       # Cumulative packet size per connected master and slave (bytes)
system.iobus.pkt_size_system.ruby.l0_cntrl2.sequencer.mem-master-port::system.pc.south_bridge.io_apic.pio           12                       # Cumulative packet size per connected master and slave (bytes)
system.iobus.pkt_size_system.ruby.l0_cntrl2.sequencer.mem-master-port::system.pc.com_1.pio           11                       # Cumulative packet size per connected master and slave (bytes)
system.iobus.pkt_size_system.ruby.l0_cntrl2.sequencer.mem-master-port::system.ruby.l0_cntrl0.sequencer.pio-slave-port            4                       # Cumulative packet size per connected master and slave (bytes)
system.iobus.pkt_size_system.ruby.l0_cntrl2.sequencer.mem-master-port::system.ruby.l0_cntrl1.sequencer.pio-slave-port            4                       # Cumulative packet size per connected master and slave (bytes)
system.iobus.pkt_size_system.ruby.l0_cntrl2.sequencer.mem-master-port::system.ruby.l0_cntrl2.sequencer.pio-slave-port         2496                       # Cumulative packet size per connected master and slave (bytes)
system.iobus.pkt_size_system.ruby.l0_cntrl2.sequencer.mem-master-port::system.ruby.l0_cntrl3.sequencer.pio-slave-port            4                       # Cumulative packet size per connected master and slave (bytes)
system.iobus.pkt_size_system.ruby.l0_cntrl2.sequencer.mem-master-port::total         2711                       # Cumulative packet size per connected master and slave (bytes)
system.iobus.pkt_size_system.ruby.l0_cntrl3.sequencer.mem-master-port::system.pc.south_bridge.ide.pio          260                       # Cumulative packet size per connected master and slave (bytes)
system.iobus.pkt_size_system.ruby.l0_cntrl3.sequencer.mem-master-port::system.pc.south_bridge.io_apic.pio           28                       # Cumulative packet size per connected master and slave (bytes)
system.iobus.pkt_size_system.ruby.l0_cntrl3.sequencer.mem-master-port::system.pc.com_1.pio           81                       # Cumulative packet size per connected master and slave (bytes)
system.iobus.pkt_size_system.ruby.l0_cntrl3.sequencer.mem-master-port::system.ruby.l0_cntrl0.sequencer.pio-slave-port            4                       # Cumulative packet size per connected master and slave (bytes)
system.iobus.pkt_size_system.ruby.l0_cntrl3.sequencer.mem-master-port::system.ruby.l0_cntrl3.sequencer.pio-slave-port         2484                       # Cumulative packet size per connected master and slave (bytes)
system.iobus.pkt_size_system.ruby.l0_cntrl3.sequencer.mem-master-port::total         2857                       # Cumulative packet size per connected master and slave (bytes)
system.iobus.pkt_size::total                    11464                       # Cumulative packet size per connected master and slave (bytes)
system.iobus.reqLayer2.occupancy              1602500                       # Layer occupancy (ticks)
system.iobus.reqLayer2.utilization                0.0                       # Layer utilization (%)
system.iobus.reqLayer8.occupancy                38996                       # Layer occupancy (ticks)
system.iobus.reqLayer8.utilization                0.0                       # Layer utilization (%)
system.iobus.reqLayer12.occupancy              121000                       # Layer occupancy (ticks)
system.iobus.reqLayer12.utilization               0.0                       # Layer utilization (%)
system.iobus.reqLayer17.occupancy             1513489                       # Layer occupancy (ticks)
system.iobus.reqLayer17.utilization               0.0                       # Layer utilization (%)
system.iobus.reqLayer18.occupancy             1706455                       # Layer occupancy (ticks)
system.iobus.reqLayer18.utilization               0.0                       # Layer utilization (%)
system.iobus.reqLayer19.occupancy             1467988                       # Layer occupancy (ticks)
system.iobus.reqLayer19.utilization               0.0                       # Layer utilization (%)
system.iobus.reqLayer20.occupancy             1526489                       # Layer occupancy (ticks)
system.iobus.reqLayer20.utilization               0.0                       # Layer utilization (%)
system.iobus.respLayer0.occupancy               82460                       # Layer occupancy (ticks)
system.iobus.respLayer0.utilization               0.0                       # Layer utilization (%)
system.iobus.respLayer2.occupancy             1277500                       # Layer occupancy (ticks)
system.iobus.respLayer2.utilization               0.0                       # Layer utilization (%)
system.iobus.respLayer4.occupancy             1348500                       # Layer occupancy (ticks)
system.iobus.respLayer4.utilization               0.0                       # Layer utilization (%)
system.iobus.respLayer6.occupancy             1191000                       # Layer occupancy (ticks)
system.iobus.respLayer6.utilization               0.0                       # Layer utilization (%)
system.iobus.respLayer8.occupancy             1394000                       # Layer occupancy (ticks)
system.iobus.respLayer8.utilization               0.0                       # Layer utilization (%)
system.pc.south_bridge.ide.disks.dma_read_full_pages          356                       # Number of full page size DMA reads (not PRD).
system.pc.south_bridge.ide.disks.dma_read_bytes      1458176                       # Number of bytes transfered via DMA reads (not PRD).
system.pc.south_bridge.ide.disks.dma_read_txs          356                       # Number of DMA read transactions (not PRD).
system.pc.south_bridge.ide.disks.dma_write_full_pages            0                       # Number of full page size DMA writes.
system.pc.south_bridge.ide.disks.dma_write_bytes            0                       # Number of bytes transfered via DMA writes.
system.pc.south_bridge.ide.disks.dma_write_txs            0                       # Number of DMA write transactions.
system.ruby.clk_domain.clock                      500                       # Clock period in ticks
system.ruby.delayHist::bucket_size                  4                       # delay histogram for all message
system.ruby.delayHist::max_bucket                  39                       # delay histogram for all message
system.ruby.delayHist::samples               40504743                       # delay histogram for all message
system.ruby.delayHist::mean                  0.219947                       # delay histogram for all message
system.ruby.delayHist::stdev                 1.308400                       # delay histogram for all message
system.ruby.delayHist                    |    39393975     97.26%     97.26% |        1908      0.00%     97.26% |     1108040      2.74%    100.00% |         182      0.00%    100.00% |         605      0.00%    100.00% |           7      0.00%    100.00% |          26      0.00%    100.00% |           0      0.00%    100.00% |           0      0.00%    100.00% |           0      0.00%    100.00% # delay histogram for all message
system.ruby.delayHist::total                 40504743                       # delay histogram for all message
system.ruby.outstanding_req_hist_seqr::bucket_size            1                      
system.ruby.outstanding_req_hist_seqr::max_bucket            9                      
system.ruby.outstanding_req_hist_seqr::samples   2274105368                      
system.ruby.outstanding_req_hist_seqr::mean     1.001962                      
system.ruby.outstanding_req_hist_seqr::gmean     1.001361                      
system.ruby.outstanding_req_hist_seqr::stdev     0.044255                      
system.ruby.outstanding_req_hist_seqr    |           0      0.00%      0.00% |  2269642799     99.80%     99.80% |     4462569      0.20%    100.00% |           0      0.00%    100.00% |           0      0.00%    100.00% |           0      0.00%    100.00% |           0      0.00%    100.00% |           0      0.00%    100.00% |           0      0.00%    100.00% |           0      0.00%    100.00%
system.ruby.outstanding_req_hist_seqr::total   2274105368                      
system.ruby.latency_hist_seqr::bucket_size          256                      
system.ruby.latency_hist_seqr::max_bucket         2559                      
system.ruby.latency_hist_seqr::samples     2274105368                      
system.ruby.latency_hist_seqr::mean          1.139595                      
[...]
system.ruby.L1Cache_Controller.Ack::total        23964                      
system.ruby.L1Cache_Controller.Ack_all   |        5586     41.36%     41.36% |        2733     20.24%     61.60% |        2508     18.57%     80.17% |        2678     19.83%    100.00%
system.ruby.L1Cache_Controller.Ack_all::total        13505                      
system.ruby.L1Cache_Controller.WB_Ack    |       89512      3.03%      3.03% |     2386493     80.74%     83.77% |      440386     14.90%     98.67% |       39356      1.33%    100.00%
system.ruby.L1Cache_Controller.WB_Ack::total      2955747                      
system.ruby.L1Cache_Controller.I.Load    |      130101      4.92%      4.92% |     1984374     75.10%     80.03% |      444215     16.81%     96.84% |       83476      3.16%    100.00%
system.ruby.L1Cache_Controller.I.Load::total      2642166                      
system.ruby.L1Cache_Controller.I.Store   |       25663      4.05%      4.05% |      500151     78.88%     82.93% |       92648     14.61%     97.54% |       15606      2.46%    100.00%
system.ruby.L1Cache_Controller.I.Store::total       634068                      
system.ruby.L1Cache_Controller.I.Inv     |        4676     23.77%     23.77% |        5595     28.45%     52.22% |        4766     24.23%     76.45% |        4631     23.55%    100.00%
system.ruby.L1Cache_Controller.I.Inv::total        19668                      
system.ruby.L1Cache_Controller.S.Load    |      174692     12.86%     12.86% |      766685     56.42%     69.28% |      244742     18.01%     87.29% |      172673     12.71%    100.00%
system.ruby.L1Cache_Controller.S.Load::total      1358792                      
system.ruby.L1Cache_Controller.S.Store   |        3603     36.36%     36.36% |        2061     20.80%     57.15% |        2228     22.48%     79.64% |        2018     20.36%    100.00%
system.ruby.L1Cache_Controller.S.Store::total         9910                      
system.ruby.L1Cache_Controller.S.L0_Invalidate_Own |       45272     18.43%     18.43% |       87651     35.69%     54.12% |       75348     30.68%     84.79% |       37351     15.21%    100.00%
system.ruby.L1Cache_Controller.S.L0_Invalidate_Own::total       245622                      
system.ruby.L1Cache_Controller.S.L0_Invalidate_Else |        6771     24.62%     24.62% |        2830     10.29%     34.91% |        9312     33.86%     68.77% |        8590     31.23%    100.00%
system.ruby.L1Cache_Controller.S.L0_Invalidate_Else::total        27503                      
system.ruby.L1Cache_Controller.SS.Load   |        3444     39.27%     39.27% |         935     10.66%     49.93% |        2890     32.95%     82.88% |        1502     17.12%    100.00%
system.ruby.L1Cache_Controller.SS.Load::total         8771                      
system.ruby.L1Cache_Controller.SS.Store  |         777     84.09%     84.09% |          22      2.38%     86.47% |          81      8.77%     95.24% |          44      4.76%    100.00%
system.ruby.L1Cache_Controller.SS.Store::total          924                      
system.ruby.L1Cache_Controller.SS.Inv    |        9088     24.42%     24.42% |        4067     10.93%     35.35% |       12196     32.77%     68.12% |       11864     31.88%    100.00%
system.ruby.L1Cache_Controller.SS.Inv::total        37215                      
system.ruby.L1Cache_Controller.SS.L1_Replacement |       46054     18.37%     18.37% |       89180     35.57%     53.94% |       76508     30.52%     84.46% |       38962     15.54%    100.00%
system.ruby.L1Cache_Controller.SS.L1_Replacement::total       250704                      
system.ruby.L1Cache_Controller.E.WriteBack |       75168      3.37%      3.37% |     1768966     79.33%     82.70% |      350838     15.73%     98.43% |       35023      1.57%    100.00%
system.ruby.L1Cache_Controller.E.WriteBack::total      2229995                      
system.ruby.L1Cache_Controller.E.L0_Invalidate_Own |        1370      1.04%      1.04% |      123137     93.28%     94.32% |        6972      5.28%     99.60% |         522      0.40%    100.00%
system.ruby.L1Cache_Controller.E.L0_Invalidate_Own::total       132001                      
system.ruby.L1Cache_Controller.E.L0_Invalidate_Else |        1443     26.46%     26.46% |         489      8.97%     35.43% |        2270     41.63%     77.06% |        1251     22.94%    100.00%
system.ruby.L1Cache_Controller.E.L0_Invalidate_Else::total         5453                      
system.ruby.L1Cache_Controller.EE.Inv    |         690     30.56%     30.56% |         160      7.09%     37.64% |         762     33.75%     71.39% |         646     28.61%    100.00%
system.ruby.L1Cache_Controller.EE.Inv::total         2258                      
system.ruby.L1Cache_Controller.EE.L1_Replacement |        1302      0.99%      0.99% |      122864     93.53%     94.52% |        6745      5.13%     99.65% |         455      0.35%    100.00%
system.ruby.L1Cache_Controller.EE.L1_Replacement::total       131366                      
system.ruby.L1Cache_Controller.EE.Fwd_GETX |           2     12.50%     12.50% |           2     12.50%     25.00% |          11     68.75%     93.75% |           1      6.25%    100.00%
system.ruby.L1Cache_Controller.EE.Fwd_GETX::total           16                      
system.ruby.L1Cache_Controller.EE.Fwd_GETS |         601     23.93%     23.93% |         253     10.08%     34.01% |        1270     50.58%     84.59% |         387     15.41%    100.00%
system.ruby.L1Cache_Controller.EE.Fwd_GETS::total         2511                      
system.ruby.L1Cache_Controller.M.WriteBack |      212351      0.89%      0.89% |    20361409     85.32%     86.21% |     3144424     13.18%     99.39% |      146009      0.61%    100.00%
system.ruby.L1Cache_Controller.M.WriteBack::total     23864193                      
system.ruby.L1Cache_Controller.M.L0_Invalidate_Own |        3112      6.04%      6.04% |       34939     67.80%     73.84% |       10934     21.22%     95.06% |        2544      4.94%    100.00%
system.ruby.L1Cache_Controller.M.L0_Invalidate_Own::total        51529                      
system.ruby.L1Cache_Controller.M.L0_Invalidate_Else |        4185     38.87%     38.87% |         702      6.52%     45.39% |        3097     28.76%     74.15% |        2783     25.85%    100.00%
system.ruby.L1Cache_Controller.M.L0_Invalidate_Else::total        10767                      
system.ruby.L1Cache_Controller.MM.Load   |      134644      0.64%      0.64% |    18114753     85.78%     86.42% |     2768410     13.11%     99.53% |       99542      0.47%    100.00%
system.ruby.L1Cache_Controller.MM.Load::total     21117349                      
system.ruby.L1Cache_Controller.MM.Store  |       54983      2.54%      2.54% |     1780059     82.25%     84.79% |      295047     13.63%     98.42% |       34142      1.58%    100.00%
system.ruby.L1Cache_Controller.MM.Store::total      2164231                      
system.ruby.L1Cache_Controller.MM.Inv    |        9333     34.37%     34.37% |        4288     15.79%     50.16% |        6680     24.60%     74.75% |        6856     25.25%    100.00%
system.ruby.L1Cache_Controller.MM.Inv::total        27157                      
system.ruby.L1Cache_Controller.MM.L1_Replacement |       88210      3.12%      3.12% |     2263629     80.15%     83.27% |      433641     15.35%     98.62% |       38901      1.38%    100.00%
system.ruby.L1Cache_Controller.MM.L1_Replacement::total      2824381                      
system.ruby.L1Cache_Controller.MM.Fwd_GETX |         912     31.19%     31.19% |         291      9.95%     41.14% |         658     22.50%     63.65% |        1063     36.35%    100.00%
system.ruby.L1Cache_Controller.MM.Fwd_GETX::total         2924                      
system.ruby.L1Cache_Controller.MM.Fwd_GETS |        6660     30.50%     30.50% |        3435     15.73%     46.24% |        5747     26.32%     72.56% |        5992     27.44%    100.00%
system.ruby.L1Cache_Controller.MM.Fwd_GETS::total        21834                      
system.ruby.L1Cache_Controller.IS.Data_Exclusive |       77964      3.29%      3.29% |     1892587     79.94%     83.24% |      360068     15.21%     98.45% |       36808      1.55%    100.00%
system.ruby.L1Cache_Controller.IS.Data_Exclusive::total      2367427                      
system.ruby.L1Cache_Controller.IS.DataS_fromL1 |        6861     28.18%     28.18% |        2857     11.74%     39.92% |        6985     28.69%     68.61% |        7642     31.39%    100.00%
system.ruby.L1Cache_Controller.IS.DataS_fromL1::total        24345                      
system.ruby.L1Cache_Controller.IS.Data_all_Acks |       45276     18.08%     18.08% |       88930     35.52%     53.60% |       77162     30.82%     84.41% |       39026     15.59%    100.00%
system.ruby.L1Cache_Controller.IS.Data_all_Acks::total       250394                      
system.ruby.L1Cache_Controller.IM.Data   |        1206     45.13%     45.13% |         650     24.33%     69.46% |         200      7.49%     76.95% |         616     23.05%    100.00%
system.ruby.L1Cache_Controller.IM.Data::total         2672                      
system.ruby.L1Cache_Controller.IM.Data_all_Acks |       24457      3.87%      3.87% |      499501     79.11%     82.98% |       92449     14.64%     97.63% |       14990      2.37%    100.00%
system.ruby.L1Cache_Controller.IM.Data_all_Acks::total       631397                      
system.ruby.L1Cache_Controller.IM.Ack    |           0      0.00%      0.00% |           0      0.00%      0.00% |           1    100.00%    100.00% |           0      0.00%    100.00%
system.ruby.L1Cache_Controller.IM.Ack::total            1                      
system.ruby.L1Cache_Controller.SM.Inv    |           0      0.00%      0.00% |           0      0.00%      0.00% |           1    100.00%    100.00% |           0      0.00%    100.00%
system.ruby.L1Cache_Controller.SM.Inv::total            1                      
system.ruby.L1Cache_Controller.SM.Ack    |       12050     50.29%     50.29% |        5480     22.87%     73.15% |        3128     13.05%     86.21% |        3305     13.79%    100.00%
system.ruby.L1Cache_Controller.SM.Ack::total        23963                      
system.ruby.L1Cache_Controller.SM.Ack_all |        5586     41.36%     41.36% |        2733     20.24%     61.60% |        2508     18.57%     80.17% |        2678     19.83%    100.00%
system.ruby.L1Cache_Controller.SM.Ack_all::total        13505                      
system.ruby.L1Cache_Controller.M_I.WB_Ack |       89512      3.03%      3.03% |     2386493     80.74%     83.77% |      440386     14.90%     98.67% |       39356      1.33%    100.00%
system.ruby.L1Cache_Controller.M_I.WB_Ack::total      2955747                      
system.ruby.L1Cache_Controller.S_IL0.L0_Invalidate_Own |       45272     18.43%     18.43% |       87651     35.69%     54.12% |       75348     30.68%     84.79% |       37351     15.21%    100.00%
system.ruby.L1Cache_Controller.S_IL0.L0_Invalidate_Own::total       245622                      
system.ruby.L1Cache_Controller.S_IL0.L0_Invalidate_Else |        6771     24.62%     24.62% |        2830     10.29%     34.91% |        9312     33.86%     68.77% |        8590     31.23%    100.00%
system.ruby.L1Cache_Controller.S_IL0.L0_Invalidate_Else::total        27503                      
system.ruby.L1Cache_Controller.S_IL0.L0_Ack |       52043     19.05%     19.05% |       90481     33.13%     52.18% |       84660     31.00%     83.18% |       45941     16.82%    100.00%
system.ruby.L1Cache_Controller.S_IL0.L0_Ack::total       273125                      
system.ruby.L1Cache_Controller.E_IL0.L0_DataAck |         218     16.73%     16.73% |         347     26.63%     43.36% |         454     34.84%     78.20% |         284     21.80%    100.00%
system.ruby.L1Cache_Controller.E_IL0.L0_DataAck::total         1303                      
system.ruby.L1Cache_Controller.E_IL0.L0_Invalidate_Own |        1370      1.04%      1.04% |      123137     93.28%     94.32% |        6972      5.28%     99.60% |         522      0.40%    100.00%
system.ruby.L1Cache_Controller.E_IL0.L0_Invalidate_Own::total       132001                      
system.ruby.L1Cache_Controller.E_IL0.L0_Invalidate_Else |        1443     26.46%     26.46% |         489      8.97%     35.43% |        2270     41.63%     77.06% |        1251     22.94%    100.00%
system.ruby.L1Cache_Controller.E_IL0.L0_Invalidate_Else::total         5453                      
system.ruby.L1Cache_Controller.E_IL0.L0_Ack |        2595      1.91%      1.91% |      123279     90.55%     92.45% |        8788      6.45%     98.91% |        1489      1.09%    100.00%
system.ruby.L1Cache_Controller.E_IL0.L0_Ack::total       136151                      
system.ruby.L1Cache_Controller.M_IL0.WriteBack |           0      0.00%      0.00% |           0      0.00%      0.00% |           1    100.00%    100.00% |           0      0.00%    100.00%
system.ruby.L1Cache_Controller.M_IL0.WriteBack::total            1                      
system.ruby.L1Cache_Controller.M_IL0.L0_DataAck |        4754     20.36%     20.36% |        8558     36.65%     57.01% |        6510     27.88%     84.89% |        3528     15.11%    100.00%
system.ruby.L1Cache_Controller.M_IL0.L0_DataAck::total        23350                      
system.ruby.L1Cache_Controller.M_IL0.L0_Invalidate_Own |        3112      6.04%      6.04% |       34939     67.80%     73.84% |       10934     21.22%     95.06% |        2544      4.94%    100.00%
system.ruby.L1Cache_Controller.M_IL0.L0_Invalidate_Own::total        51529                      
system.ruby.L1Cache_Controller.M_IL0.L0_Invalidate_Else |        4185     38.87%     38.87% |         702      6.52%     45.39% |        3097     28.76%     74.15% |        2783     25.85%    100.00%
system.ruby.L1Cache_Controller.M_IL0.L0_Invalidate_Else::total        10767                      
system.ruby.L1Cache_Controller.M_IL0.L0_Ack |        2543      6.53%      6.53% |       27083     69.54%     76.07% |        7520     19.31%     95.38% |        1799      4.62%    100.00%
system.ruby.L1Cache_Controller.M_IL0.L0_Ack::total        38945                      
system.ruby.L1Cache_Controller.MM_IL0.Fwd_GETS |           0      0.00%      0.00% |           0      0.00%      0.00% |           1    100.00%    100.00% |           0      0.00%    100.00%
system.ruby.L1Cache_Controller.MM_IL0.Fwd_GETS::total            1                      
system.ruby.L1Cache_Controller.MM_IL0.L0_Ack |           0      0.00%      0.00% |           0      0.00%      0.00% |           1    100.00%    100.00% |           0      0.00%    100.00%
system.ruby.L1Cache_Controller.MM_IL0.L0_Ack::total            1                      
system.ruby.L2Cache_Controller.L1_GETS        2642235      0.00%      0.00%
system.ruby.L2Cache_Controller.L1_GETX         634072      0.00%      0.00%
system.ruby.L2Cache_Controller.L1_UPGRADE        10834      0.00%      0.00%
system.ruby.L2Cache_Controller.L1_PUTX        2955747      0.00%      0.00%
system.ruby.L2Cache_Controller.L2_Replacement       869879      0.00%      0.00%
system.ruby.L2Cache_Controller.L2_Replacement_clean       730039      0.00%      0.00%
system.ruby.L2Cache_Controller.Mem_Data       1600141      0.00%      0.00%
system.ruby.L2Cache_Controller.Mem_Ack        1600141      0.00%      0.00%
system.ruby.L2Cache_Controller.WB_Data          23887      0.00%      0.00%
system.ruby.L2Cache_Controller.WB_Data_clean        27615      0.00%      0.00%
system.ruby.L2Cache_Controller.Ack              20115      0.00%      0.00%
system.ruby.L2Cache_Controller.Ack_all          12391      0.00%      0.00%
system.ruby.L2Cache_Controller.Unblock          24345      0.00%      0.00%
system.ruby.L2Cache_Controller.Exclusive_Unblock      3012329      0.00%      0.00%
system.ruby.L2Cache_Controller.MEM_Inv            446      0.00%      0.00%
system.ruby.L2Cache_Controller.NP.L1_GETS      1077454      0.00%      0.00%
system.ruby.L2Cache_Controller.NP.L1_GETX       522687      0.00%      0.00%
system.ruby.L2Cache_Controller.SS.L1_GETS       250354      0.00%      0.00%
system.ruby.L2Cache_Controller.SS.L1_GETX         2673      0.00%      0.00%
system.ruby.L2Cache_Controller.SS.L1_UPGRADE        10833      0.00%      0.00%
system.ruby.L2Cache_Controller.SS.L2_Replacement          610      0.00%      0.00%
system.ruby.L2Cache_Controller.SS.L2_Replacement_clean         9523      0.00%      0.00%
system.ruby.L2Cache_Controller.M.L1_GETS      1289993      0.00%      0.00%
system.ruby.L2Cache_Controller.M.L1_GETX       105769      0.00%      0.00%
system.ruby.L2Cache_Controller.M.L2_Replacement       867061      0.00%      0.00%
system.ruby.L2Cache_Controller.M.L2_Replacement_clean       693383      0.00%      0.00%
system.ruby.L2Cache_Controller.M.MEM_Inv          149      0.00%      0.00%
system.ruby.L2Cache_Controller.MT.L1_GETS        24345      0.00%      0.00%
system.ruby.L2Cache_Controller.MT.L1_GETX         2940      0.00%      0.00%
system.ruby.L2Cache_Controller.MT.L1_PUTX      2955747      0.00%      0.00%
system.ruby.L2Cache_Controller.MT.L2_Replacement         2208      0.00%      0.00%
system.ruby.L2Cache_Controller.MT.L2_Replacement_clean        27133      0.00%      0.00%
system.ruby.L2Cache_Controller.MT.MEM_Inv           74      0.00%      0.00%
system.ruby.L2Cache_Controller.M_I.L1_GETS            3      0.00%      0.00%
system.ruby.L2Cache_Controller.M_I.L1_GETX            2      0.00%      0.00%
system.ruby.L2Cache_Controller.M_I.Mem_Ack      1600141      0.00%      0.00%
system.ruby.L2Cache_Controller.M_I.MEM_Inv          149      0.00%      0.00%
system.ruby.L2Cache_Controller.MT_I.WB_Data         1780      0.00%      0.00%
system.ruby.L2Cache_Controller.MT_I.WB_Data_clean          343      0.00%      0.00%
system.ruby.L2Cache_Controller.MT_I.Ack_all          159      0.00%      0.00%
system.ruby.L2Cache_Controller.MT_I.MEM_Inv           74      0.00%      0.00%
system.ruby.L2Cache_Controller.MCT_I.WB_Data        12876      0.00%      0.00%
system.ruby.L2Cache_Controller.MCT_I.WB_Data_clean        12158      0.00%      0.00%
system.ruby.L2Cache_Controller.MCT_I.Ack_all         2099      0.00%      0.00%
system.ruby.L2Cache_Controller.I_I.Ack          19344      0.00%      0.00%
system.ruby.L2Cache_Controller.I_I.Ack_all         9523      0.00%      0.00%
system.ruby.L2Cache_Controller.S_I.Ack            771      0.00%      0.00%
system.ruby.L2Cache_Controller.S_I.Ack_all          610      0.00%      0.00%
system.ruby.L2Cache_Controller.ISS.L1_GETS           20      0.00%      0.00%
system.ruby.L2Cache_Controller.ISS.Mem_Data      1077434      0.00%      0.00%
system.ruby.L2Cache_Controller.IS.Mem_Data           20      0.00%      0.00%
system.ruby.L2Cache_Controller.IM.Mem_Data       522687      0.00%      0.00%
system.ruby.L2Cache_Controller.SS_MB.L1_GETS           42      0.00%      0.00%
system.ruby.L2Cache_Controller.SS_MB.L1_UPGRADE            1      0.00%      0.00%
system.ruby.L2Cache_Controller.SS_MB.Exclusive_Unblock        13506      0.00%      0.00%
system.ruby.L2Cache_Controller.MT_MB.L1_GETS           21      0.00%      0.00%
system.ruby.L2Cache_Controller.MT_MB.L1_GETX            1      0.00%      0.00%
system.ruby.L2Cache_Controller.MT_MB.Exclusive_Unblock      2998823      0.00%      0.00%
system.ruby.L2Cache_Controller.MT_IIB.L1_GETS            3      0.00%      0.00%
system.ruby.L2Cache_Controller.MT_IIB.WB_Data         9224      0.00%      0.00%
system.ruby.L2Cache_Controller.MT_IIB.WB_Data_clean        15083      0.00%      0.00%
system.ruby.L2Cache_Controller.MT_IIB.Unblock           38      0.00%      0.00%
system.ruby.L2Cache_Controller.MT_IB.WB_Data            7      0.00%      0.00%
system.ruby.L2Cache_Controller.MT_IB.WB_Data_clean           31      0.00%      0.00%
system.ruby.L2Cache_Controller.MT_SB.Unblock        24307      0.00%      0.00%

---------- End Simulation Statistics   ----------
