
---------- Begin Simulation Statistics ----------
sim_seconds                                  0.727575                       # Number of seconds simulated
sim_ticks                                727574563500                       # Number of ticks simulated
final_tick                               54240248253001                       # Number of ticks from beginning of simulation (restored from checkpoints and never reset)
sim_freq                                 1000000000000                       # Frequency of simulated ticks
host_inst_rate                                 103839                       # Simulator instruction rate (inst/s)
host_op_rate                                   171922                       # Simulator op (including micro ops) rate (op/s)
host_tick_rate                              270226216                       # Simulator tick rate (ticks/s)
host_mem_usage                                2200844                       # Number of bytes of host memory used
host_seconds                                  2692.46                       # Real time elapsed on the host
sim_insts                                   279583623                       # Number of instructions simulated
sim_ops                                     462893664                       # Number of ops (including micro ops) simulated
system.voltage_domain.voltage                       1                       # Voltage in Volts
system.clk_domain.clock                          1000                       # Clock period in ticks
system.mem_ctrls.bytes_read::ruby.dir_cntrl0    175926592                       # Number of bytes read from this memory
system.mem_ctrls.bytes_read::total          175926592                       # Number of bytes read from this memory
system.mem_ctrls.bytes_written::ruby.dir_cntrl0    100396224                       # Number of bytes written to this memory
system.mem_ctrls.bytes_written::total       100396224                       # Number of bytes written to this memory
system.mem_ctrls.num_reads::ruby.dir_cntrl0      2748853                       # Number of read requests responded to by this memory
system.mem_ctrls.num_reads::total             2748853                       # Number of read requests responded to by this memory
system.mem_ctrls.num_writes::ruby.dir_cntrl0      1568691                       # Number of write requests responded to by this memory
system.mem_ctrls.num_writes::total            1568691                       # Number of write requests responded to by this memory
system.mem_ctrls.bw_read::ruby.dir_cntrl0    241798712                       # Total read bandwidth from this memory (bytes/s)
system.mem_ctrls.bw_read::total             241798712                       # Total read bandwidth from this memory (bytes/s)
system.mem_ctrls.bw_write::ruby.dir_cntrl0    137987540                       # Write bandwidth from this memory (bytes/s)
system.mem_ctrls.bw_write::total            137987540                       # Write bandwidth from this memory (bytes/s)
system.mem_ctrls.bw_total::ruby.dir_cntrl0    379786251                       # Total bandwidth to/from this memory (bytes/s)
system.mem_ctrls.bw_total::total            379786251                       # Total bandwidth to/from this memory (bytes/s)
system.mem_ctrls.readReqs                     2748853                       # Number of read requests accepted
system.mem_ctrls.writeReqs                    1568691                       # Number of write requests accepted
system.mem_ctrls.readBursts                   2748853                       # Number of DRAM read bursts, including those serviced by the write queue
system.mem_ctrls.writeBursts                  1568691                       # Number of DRAM write bursts, including those merged in the write queue
system.mem_ctrls.bytesReadDRAM              175892288                       # Total number of bytes read from DRAM
system.mem_ctrls.bytesReadWrQ                   34304                       # Total number of bytes read from write queue
system.mem_ctrls.bytesWritten               100394432                       # Total number of bytes written to DRAM
system.mem_ctrls.bytesReadSys               175926592                       # Total read bytes from the system interface side
system.mem_ctrls.bytesWrittenSys            100396224                       # Total written bytes from the system interface side
system.mem_ctrls.servicedByWrQ                    536                       # Number of DRAM read bursts serviced by the write queue
system.mem_ctrls.mergedWrBursts                     0                       # Number of DRAM write bursts merged with an existing one
system.mem_ctrls.neitherReadNorWriteReqs            0                       # Number of requests that are neither read nor write
system.mem_ctrls.perBankRdBursts::0            170736                       # Per bank write bursts
system.mem_ctrls.perBankRdBursts::1            173711                       # Per bank write bursts
system.mem_ctrls.perBankRdBursts::2            175546                       # Per bank write bursts
system.mem_ctrls.perBankRdBursts::3            175943                       # Per bank write bursts
system.mem_ctrls.perBankRdBursts::4            175240                       # Per bank write bursts
system.mem_ctrls.perBankRdBursts::5            173294                       # Per bank write bursts
system.mem_ctrls.perBankRdBursts::6            171451                       # Per bank write bursts
system.mem_ctrls.perBankRdBursts::7            173127                       # Per bank write bursts
system.mem_ctrls.perBankRdBursts::8            170859                       # Per bank write bursts
system.mem_ctrls.perBankRdBursts::9            170055                       # Per bank write bursts
system.mem_ctrls.perBankRdBursts::10           172127                       # Per bank write bursts
system.mem_ctrls.perBankRdBursts::11           168789                       # Per bank write bursts
system.mem_ctrls.perBankRdBursts::12           171481                       # Per bank write bursts
system.mem_ctrls.perBankRdBursts::13           169861                       # Per bank write bursts
system.mem_ctrls.perBankRdBursts::14           169097                       # Per bank write bursts
system.mem_ctrls.perBankRdBursts::15           167000                       # Per bank write bursts
system.mem_ctrls.perBankWrBursts::0             97683                       # Per bank write bursts
system.mem_ctrls.perBankWrBursts::1            100590                       # Per bank write bursts
system.mem_ctrls.perBankWrBursts::2            100397                       # Per bank write bursts
system.mem_ctrls.perBankWrBursts::3             99891                       # Per bank write bursts
system.mem_ctrls.perBankWrBursts::4            100070                       # Per bank write bursts
system.mem_ctrls.perBankWrBursts::5             99113                       # Per bank write bursts
system.mem_ctrls.perBankWrBursts::6             97785                       # Per bank write bursts
system.mem_ctrls.perBankWrBursts::7             98661                       # Per bank write bursts
system.mem_ctrls.perBankWrBursts::8             97712                       # Per bank write bursts
system.mem_ctrls.perBankWrBursts::9             97632                       # Per bank write bursts
system.mem_ctrls.perBankWrBursts::10            98263                       # Per bank write bursts
system.mem_ctrls.perBankWrBursts::11            96821                       # Per bank write bursts
system.mem_ctrls.perBankWrBursts::12            96448                       # Per bank write bursts
system.mem_ctrls.perBankWrBursts::13            96262                       # Per bank write bursts
system.mem_ctrls.perBankWrBursts::14            96322                       # Per bank write bursts
system.mem_ctrls.perBankWrBursts::15            95013                       # Per bank write bursts
system.mem_ctrls.numRdRetry                         0                       # Number of times read queue was full causing retry
system.mem_ctrls.numWrRetry                         0                       # Number of times write queue was full causing retry
system.mem_ctrls.totGap                  727574506500                       # Total gap between requests
system.mem_ctrls.readPktSize::0                     0                       # Read request sizes (log2)
system.mem_ctrls.readPktSize::1                     0                       # Read request sizes (log2)
system.mem_ctrls.readPktSize::2                     0                       # Read request sizes (log2)
system.mem_ctrls.readPktSize::3                     0                       # Read request sizes (log2)
system.mem_ctrls.readPktSize::4                     0                       # Read request sizes (log2)
system.mem_ctrls.readPktSize::5                     0                       # Read request sizes (log2)
system.mem_ctrls.readPktSize::6               2748853                       # Read request sizes (log2)
system.mem_ctrls.writePktSize::0                    0                       # Write request sizes (log2)
system.mem_ctrls.writePktSize::1                    0                       # Write request sizes (log2)
system.mem_ctrls.writePktSize::2                    0                       # Write request sizes (log2)
system.mem_ctrls.writePktSize::3                    0                       # Write request sizes (log2)
system.mem_ctrls.writePktSize::4                    0                       # Write request sizes (log2)
system.mem_ctrls.writePktSize::5                    0                       # Write request sizes (log2)
system.mem_ctrls.writePktSize::6              1568691                       # Write request sizes (log2)
system.mem_ctrls.rdQLenPdf::0                 2731358                       # What read queue length does an incoming req see
system.mem_ctrls.rdQLenPdf::1                   16843                       # What read queue length does an incoming req see
system.mem_ctrls.rdQLenPdf::2                     113                       # What read queue length does an incoming req see
system.mem_ctrls.rdQLenPdf::3                       3                       # What read queue length does an incoming req see
system.mem_ctrls.rdQLenPdf::4                       0                       # What read queue length does an incoming req see
system.mem_ctrls.rdQLenPdf::5                       0                       # What read queue length does an incoming req see
system.mem_ctrls.rdQLenPdf::6                       0                       # What read queue length does an incoming req see
system.mem_ctrls.rdQLenPdf::7                       0                       # What read queue length does an incoming req see
system.mem_ctrls.rdQLenPdf::8                       0                       # What read queue length does an incoming req see
system.mem_ctrls.rdQLenPdf::9                       0                       # What read queue length does an incoming req see
system.mem_ctrls.rdQLenPdf::10                      0                       # What read queue length does an incoming req see
system.mem_ctrls.rdQLenPdf::11                      0                       # What read queue length does an incoming req see
system.mem_ctrls.rdQLenPdf::12                      0                       # What read queue length does an incoming req see
system.mem_ctrls.rdQLenPdf::13                      0                       # What read queue length does an incoming req see
system.mem_ctrls.rdQLenPdf::14                      0                       # What read queue length does an incoming req see
system.mem_ctrls.rdQLenPdf::15                      0                       # What read queue length does an incoming req see
system.mem_ctrls.rdQLenPdf::16                      0                       # What read queue length does an incoming req see
system.mem_ctrls.rdQLenPdf::17                      0                       # What read queue length does an incoming req see
system.mem_ctrls.rdQLenPdf::18                      0                       # What read queue length does an incoming req see
system.mem_ctrls.rdQLenPdf::19                      0                       # What read queue length does an incoming req see
system.mem_ctrls.rdQLenPdf::20                      0                       # What read queue length does an incoming req see
system.mem_ctrls.rdQLenPdf::21                      0                       # What read queue length does an incoming req see
system.mem_ctrls.rdQLenPdf::22                      0                       # What read queue length does an incoming req see
system.mem_ctrls.rdQLenPdf::23                      0                       # What read queue length does an incoming req see
system.mem_ctrls.rdQLenPdf::24                      0                       # What read queue length does an incoming req see
system.mem_ctrls.rdQLenPdf::25                      0                       # What read queue length does an incoming req see
system.mem_ctrls.rdQLenPdf::26                      0                       # What read queue length does an incoming req see
system.mem_ctrls.rdQLenPdf::27                      0                       # What read queue length does an incoming req see
system.mem_ctrls.rdQLenPdf::28                      0                       # What read queue length does an incoming req see
system.mem_ctrls.rdQLenPdf::29                      0                       # What read queue length does an incoming req see
system.mem_ctrls.rdQLenPdf::30                      0                       # What read queue length does an incoming req see
system.mem_ctrls.rdQLenPdf::31                      0                       # What read queue length does an incoming req see
system.mem_ctrls.wrQLenPdf::0                       1                       # What write queue length does an incoming req see
system.mem_ctrls.wrQLenPdf::1                       1                       # What write queue length does an incoming req see
system.mem_ctrls.wrQLenPdf::2                       1                       # What write queue length does an incoming req see
system.mem_ctrls.wrQLenPdf::3                       1                       # What write queue length does an incoming req see
system.mem_ctrls.wrQLenPdf::4                       1                       # What write queue length does an incoming req see
system.mem_ctrls.wrQLenPdf::5                       1                       # What write queue length does an incoming req see
system.mem_ctrls.wrQLenPdf::6                       1                       # What write queue length does an incoming req see
system.mem_ctrls.wrQLenPdf::7                       1                       # What write queue length does an incoming req see
system.mem_ctrls.wrQLenPdf::8                       1                       # What write queue length does an incoming req see
system.mem_ctrls.wrQLenPdf::9                       1                       # What write queue length does an incoming req see
system.mem_ctrls.wrQLenPdf::10                      1                       # What write queue length does an incoming req see
system.mem_ctrls.wrQLenPdf::11                      1                       # What write queue length does an incoming req see
system.mem_ctrls.wrQLenPdf::12                      1                       # What write queue length does an incoming req see
system.mem_ctrls.wrQLenPdf::13                      1                       # What write queue length does an incoming req see
system.mem_ctrls.wrQLenPdf::14                      1                       # What write queue length does an incoming req see
system.mem_ctrls.wrQLenPdf::15                  55098                       # What write queue length does an incoming req see
system.mem_ctrls.wrQLenPdf::16                  59178                       # What write queue length does an incoming req see
system.mem_ctrls.wrQLenPdf::17                  84084                       # What write queue length does an incoming req see
system.mem_ctrls.wrQLenPdf::18                  91928                       # What write queue length does an incoming req see
system.mem_ctrls.wrQLenPdf::19                  92703                       # What write queue length does an incoming req see
system.mem_ctrls.wrQLenPdf::20                  92220                       # What write queue length does an incoming req see
system.mem_ctrls.wrQLenPdf::21                  91200                       # What write queue length does an incoming req see
system.mem_ctrls.wrQLenPdf::22                  90690                       # What write queue length does an incoming req see
system.mem_ctrls.wrQLenPdf::23                  90557                       # What write queue length does an incoming req see
system.mem_ctrls.wrQLenPdf::24                  90707                       # What write queue length does an incoming req see
system.mem_ctrls.wrQLenPdf::25                  91112                       # What write queue length does an incoming req see
system.mem_ctrls.wrQLenPdf::26                  91758                       # What write queue length does an incoming req see
system.mem_ctrls.wrQLenPdf::27                  91171                       # What write queue length does an incoming req see
system.mem_ctrls.wrQLenPdf::28                  91090                       # What write queue length does an incoming req see
system.mem_ctrls.wrQLenPdf::29                  92268                       # What write queue length does an incoming req see
system.mem_ctrls.wrQLenPdf::30                  91680                       # What write queue length does an incoming req see
system.mem_ctrls.wrQLenPdf::31                  90343                       # What write queue length does an incoming req see
system.mem_ctrls.wrQLenPdf::32                  90303                       # What write queue length does an incoming req see
system.mem_ctrls.wrQLenPdf::33                    437                       # What write queue length does an incoming req see
system.mem_ctrls.wrQLenPdf::34                     82                       # What write queue length does an incoming req see
system.mem_ctrls.wrQLenPdf::35                     20                       # What write queue length does an incoming req see
system.mem_ctrls.wrQLenPdf::36                      8                       # What write queue length does an incoming req see
system.mem_ctrls.wrQLenPdf::37                      4                       # What write queue length does an incoming req see
system.mem_ctrls.wrQLenPdf::38                      3                       # What write queue length does an incoming req see
system.mem_ctrls.wrQLenPdf::39                      5                       # What write queue length does an incoming req see
system.mem_ctrls.wrQLenPdf::40                      4                       # What write queue length does an incoming req see
system.mem_ctrls.wrQLenPdf::41                      5                       # What write queue length does an incoming req see
system.mem_ctrls.wrQLenPdf::42                      4                       # What write queue length does an incoming req see
system.mem_ctrls.wrQLenPdf::43                      3                       # What write queue length does an incoming req see
system.mem_ctrls.wrQLenPdf::44                      2                       # What write queue length does an incoming req see
system.mem_ctrls.wrQLenPdf::45                      3                       # What write queue length does an incoming req see
system.mem_ctrls.wrQLenPdf::46                      1                       # What write queue length does an incoming req see
system.mem_ctrls.wrQLenPdf::47                      2                       # What write queue length does an incoming req see
system.mem_ctrls.wrQLenPdf::48                      1                       # What write queue length does an incoming req see
system.mem_ctrls.wrQLenPdf::49                      1                       # What write queue length does an incoming req see
system.mem_ctrls.wrQLenPdf::50                      1                       # What write queue length does an incoming req see
system.mem_ctrls.wrQLenPdf::51                      0                       # What write queue length does an incoming req see
system.mem_ctrls.wrQLenPdf::52                      0                       # What write queue length does an incoming req see
system.mem_ctrls.wrQLenPdf::53                      0                       # What write queue length does an incoming req see
system.mem_ctrls.wrQLenPdf::54                      0                       # What write queue length does an incoming req see
system.mem_ctrls.wrQLenPdf::55                      0                       # What write queue length does an incoming req see
system.mem_ctrls.wrQLenPdf::56                      0                       # What write queue length does an incoming req see
system.mem_ctrls.wrQLenPdf::57                      0                       # What write queue length does an incoming req see
system.mem_ctrls.wrQLenPdf::58                      0                       # What write queue length does an incoming req see
system.mem_ctrls.wrQLenPdf::59                      0                       # What write queue length does an incoming req see
system.mem_ctrls.wrQLenPdf::60                      0                       # What write queue length does an incoming req see
system.mem_ctrls.wrQLenPdf::61                      0                       # What write queue length does an incoming req see
system.mem_ctrls.wrQLenPdf::62                      0                       # What write queue length does an incoming req see
system.mem_ctrls.wrQLenPdf::63                      0                       # What write queue length does an incoming req see
system.mem_ctrls.bytesPerActivate::samples      3756426                       # Bytes accessed per row activation
system.mem_ctrls.bytesPerActivate::mean     73.550423                       # Bytes accessed per row activation
system.mem_ctrls.bytesPerActivate::gmean    69.813291                       # Bytes accessed per row activation
system.mem_ctrls.bytesPerActivate::stdev    43.206890                       # Bytes accessed per row activation
system.mem_ctrls.bytesPerActivate::0-127      3335918     88.81%     88.81% # Bytes accessed per row activation
system.mem_ctrls.bytesPerActivate::128-255       400887     10.67%     99.48% # Bytes accessed per row activation
system.mem_ctrls.bytesPerActivate::256-383        11495      0.31%     99.78% # Bytes accessed per row activation
system.mem_ctrls.bytesPerActivate::384-511         2302      0.06%     99.84% # Bytes accessed per row activation
system.mem_ctrls.bytesPerActivate::512-639          504      0.01%     99.86% # Bytes accessed per row activation
system.mem_ctrls.bytesPerActivate::640-767          444      0.01%     99.87% # Bytes accessed per row activation
system.mem_ctrls.bytesPerActivate::768-895          449      0.01%     99.88% # Bytes accessed per row activation
system.mem_ctrls.bytesPerActivate::896-1023          348      0.01%     99.89% # Bytes accessed per row activation
system.mem_ctrls.bytesPerActivate::1024-1151         4079      0.11%    100.00% # Bytes accessed per row activation
system.mem_ctrls.bytesPerActivate::total      3756426                       # Bytes accessed per row activation
system.mem_ctrls.rdPerTurnAround::samples        90283                       # Reads before turning the bus around for writes
system.mem_ctrls.rdPerTurnAround::mean      30.877197                       # Reads before turning the bus around for writes
system.mem_ctrls.rdPerTurnAround::stdev    146.282493                       # Reads before turning the bus around for writes
system.mem_ctrls.rdPerTurnAround::0-2047        90281    100.00%    100.00% # Reads before turning the bus around for writes
system.mem_ctrls.rdPerTurnAround::2048-4095            1      0.00%    100.00% # Reads before turning the bus around for writes
system.mem_ctrls.rdPerTurnAround::43008-45055            1      0.00%    100.00% # Reads before turning the bus around for writes
system.mem_ctrls.rdPerTurnAround::total         90283                       # Reads before turning the bus around for writes
system.mem_ctrls.wrPerTurnAround::samples        90283                       # Writes before turning the bus around for reads
system.mem_ctrls.wrPerTurnAround::mean      17.374954                       # Writes before turning the bus around for reads
system.mem_ctrls.wrPerTurnAround::gmean     17.337373                       # Writes before turning the bus around for reads
system.mem_ctrls.wrPerTurnAround::stdev      1.172421                       # Writes before turning the bus around for reads
system.mem_ctrls.wrPerTurnAround::16-17         34872     38.63%     38.63% # Writes before turning the bus around for reads
system.mem_ctrls.wrPerTurnAround::18-19         54228     60.06%     98.69% # Writes before turning the bus around for reads
system.mem_ctrls.wrPerTurnAround::20-21          1105      1.22%     99.91% # Writes before turning the bus around for reads
system.mem_ctrls.wrPerTurnAround::22-23            42      0.05%     99.96% # Writes before turning the bus around for reads
system.mem_ctrls.wrPerTurnAround::24-25             5      0.01%     99.97% # Writes before turning the bus around for reads
system.mem_ctrls.wrPerTurnAround::26-27             2      0.00%     99.97% # Writes before turning the bus around for reads
system.mem_ctrls.wrPerTurnAround::28-29             7      0.01%     99.98% # Writes before turning the bus around for reads
system.mem_ctrls.wrPerTurnAround::30-31             5      0.01%     99.98% # Writes before turning the bus around for reads
system.mem_ctrls.wrPerTurnAround::32-33             1      0.00%     99.98% # Writes before turning the bus around for reads
system.mem_ctrls.wrPerTurnAround::34-35            14      0.02%    100.00% # Writes before turning the bus around for reads
system.mem_ctrls.wrPerTurnAround::74-75             1      0.00%    100.00% # Writes before turning the bus around for reads
system.mem_ctrls.wrPerTurnAround::76-77             1      0.00%    100.00% # Writes before turning the bus around for reads
system.mem_ctrls.wrPerTurnAround::total         90283                       # Writes before turning the bus around for reads
system.mem_ctrls.totQLat                  59203087425                       # Total ticks spent queuing
system.mem_ctrls.totMemAccLat            110734031175                       # Total ticks spent from burst creation until serviced by the DRAM
system.mem_ctrls.totBusLat                13741585000                       # Total ticks spent in databus transfers
system.mem_ctrls.avgQLat                     21541.58                       # Average queueing delay per DRAM burst
system.mem_ctrls.avgBusLat                    5000.00                       # Average bus latency per DRAM burst
system.mem_ctrls.avgMemAccLat                40291.58                       # Average memory access latency per DRAM burst
system.mem_ctrls.avgRdBW                       241.75                       # Average DRAM read bandwidth in MiByte/s
system.mem_ctrls.avgWrBW                       137.99                       # Average achieved write bandwidth in MiByte/s
system.mem_ctrls.avgRdBWSys                    241.80                       # Average system read bandwidth in MiByte/s
system.mem_ctrls.avgWrBWSys                    137.99                       # Average system write bandwidth in MiByte/s
system.mem_ctrls.peakBW                      12800.00                       # Theoretical peak bandwidth in MiByte/s
system.mem_ctrls.busUtil                         2.97                       # Data bus utilization in percentage
system.mem_ctrls.busUtilRead                     1.89                       # Data bus utilization in percentage for reads
system.mem_ctrls.busUtilWrite                    1.08                       # Data bus utilization in percentage for writes
system.mem_ctrls.avgRdQLen                       1.00                       # Average read queue length when enqueuing
system.mem_ctrls.avgWrQLen                      24.83                       # Average write queue length when enqueuing
system.mem_ctrls.readRowHits                   495778                       # Number of row buffer hits during reads
system.mem_ctrls.writeRowHits                   64776                       # Number of row buffer hits during writes
system.mem_ctrls.readRowHitRate                 18.04                       # Row buffer hit rate for reads
system.mem_ctrls.writeRowHitRate                 4.13                       # Row buffer hit rate for writes
system.mem_ctrls.avgGap                     168515.83                       # Average gap between requests
system.mem_ctrls.pageHitRate                    12.98                       # Row buffer hit rate, read and write combined
system.mem_ctrls_0.actEnergy              14383640880                       # Energy for activate commands per rank (pJ)
system.mem_ctrls_0.preEnergy               7848216750                       # Energy for precharge commands per rank (pJ)
system.mem_ctrls_0.readEnergy             10992025200                       # Energy for read commands per rank (pJ)
system.mem_ctrls_0.writeEnergy             5146351200                       # Energy for write commands per rank (pJ)
system.mem_ctrls_0.refreshEnergy          48057394320                       # Energy for refresh commands per rank (pJ)
system.mem_ctrls_0.actBackEnergy         463912202205                       # Energy for active background per rank (pJ)
system.mem_ctrls_0.preBackEnergy          34525987500                       # Energy for precharge background per rank (pJ)
system.mem_ctrls_0.totalEnergy           584865818055                       # Total energy per rank (pJ)
system.mem_ctrls_0.averagePower            794.894920                       # Core power per rank (mW)
system.mem_ctrls_0.memoryStateTime::IDLE  51358675502                       # Time in different power states
system.mem_ctrls_0.memoryStateTime::REF   24295440000                       # Time in different power states
system.mem_ctrls_0.memoryStateTime::PRE_PDN            0                       # Time in different power states
system.mem_ctrls_0.memoryStateTime::ACT  651921512998                       # Time in different power states
system.mem_ctrls_0.memoryStateTime::ACT_PDN            0                       # Time in different power states
system.mem_ctrls_1.actEnergy              14060896920                       # Energy for activate commands per rank (pJ)
system.mem_ctrls_1.preEnergy               7672116375                       # Energy for precharge commands per rank (pJ)
system.mem_ctrls_1.readEnergy             10752440400                       # Energy for read commands per rank (pJ)
system.mem_ctrls_1.writeEnergy             5018585040                       # Energy for write commands per rank (pJ)
system.mem_ctrls_1.refreshEnergy          48057394320                       # Energy for refresh commands per rank (pJ)
system.mem_ctrls_1.actBackEnergy         463158633420                       # Energy for active background per rank (pJ)
system.mem_ctrls_1.preBackEnergy          35187012750                       # Energy for precharge background per rank (pJ)
system.mem_ctrls_1.totalEnergy           583907079225                       # Total energy per rank (pJ)
system.mem_ctrls_1.averagePower            793.591892                       # Core power per rank (mW)
system.mem_ctrls_1.memoryStateTime::IDLE  52535087750                       # Time in different power states
system.mem_ctrls_1.memoryStateTime::REF   24295440000                       # Time in different power states
system.mem_ctrls_1.memoryStateTime::PRE_PDN            0                       # Time in different power states
system.mem_ctrls_1.memoryStateTime::ACT  650747817250                       # Time in different power states
system.mem_ctrls_1.memoryStateTime::ACT_PDN            0                       # Time in different power states
system.cpu_voltage_domain.voltage                   1                       # Voltage in Volts
system.cpu_clk_domain.clock                       500                       # Clock period in ticks
system.cpu0.apic_clk_domain.clock                8000                       # Clock period in ticks
system.cpu0.numCycles                      1450381495                       # number of cpu cycles simulated
system.cpu0.numWorkItemsStarted                     0                       # number of work items this cpu started
system.cpu0.numWorkItemsCompleted                   0                       # number of work items this cpu completed
system.cpu0.kern.inst.arm                           0                       # number of arm instructions executed
system.cpu0.kern.inst.quiesce                       0                       # number of quiesce instructions executed
system.cpu0.committedInsts                    1360552                       # Number of instructions committed
system.cpu0.committedOps                      2843574                       # Number of ops (including micro ops) committed
system.cpu0.num_int_alu_accesses              2792507                       # Number of integer alu accesses
system.cpu0.num_fp_alu_accesses                    68                       # Number of float alu accesses
system.cpu0.num_func_calls                      74874                       # number of times a function call or return occured
system.cpu0.num_conditional_control_insts       232701                       # number of instructions that are conditional controls
system.cpu0.num_int_insts                     2792507                       # number of integer instructions
system.cpu0.num_fp_insts                           68                       # number of float instructions
system.cpu0.num_int_register_reads            5451523                       # number of times the integer registers were read
system.cpu0.num_int_register_writes           2290392                       # number of times the integer registers were written
system.cpu0.num_fp_register_reads                  70                       # number of times the floating registers were read
system.cpu0.num_fp_register_writes                 62                       # number of times the floating registers were written
system.cpu0.num_cc_register_reads             1750249                       # number of times the CC registers were read
system.cpu0.num_cc_register_writes             945983                       # number of times the CC registers were written
system.cpu0.num_mem_refs                       578633                       # number of memory refs
system.cpu0.num_load_insts                     359444                       # Number of load instructions
system.cpu0.num_store_insts                    219189                       # Number of store instructions
system.cpu0.num_idle_cycles              1444534653.515197                       # Number of idle cycles
system.cpu0.num_busy_cycles              5846841.484803                       # Number of busy cycles
system.cpu0.not_idle_fraction                0.004031                       # Percentage of non-idle cycles
system.cpu0.idle_fraction                    0.995969                       # Percentage of idle cycles
system.cpu0.Branches                           330828                       # Number of branches fetched
system.cpu0.op_class::No_OpClass                34258      1.20%      1.20% # Class of executed instruction
system.cpu0.op_class::IntAlu                  2219148     78.03%     79.23% # Class of executed instruction
system.cpu0.op_class::IntMult                    3642      0.13%     79.36% # Class of executed instruction
system.cpu0.op_class::IntDiv                     8430      0.30%     79.65% # Class of executed instruction
system.cpu0.op_class::FloatAdd                     24      0.00%     79.66% # Class of executed instruction
system.cpu0.op_class::FloatCmp                      0      0.00%     79.66% # Class of executed instruction
system.cpu0.op_class::FloatCvt                      0      0.00%     79.66% # Class of executed instruction
system.cpu0.op_class::FloatMult                     0      0.00%     79.66% # Class of executed instruction
system.cpu0.op_class::FloatDiv                      0      0.00%     79.66% # Class of executed instruction
system.cpu0.op_class::FloatSqrt                     0      0.00%     79.66% # Class of executed instruction
system.cpu0.op_class::SimdAdd                       0      0.00%     79.66% # Class of executed instruction
system.cpu0.op_class::SimdAddAcc                    0      0.00%     79.66% # Class of executed instruction
system.cpu0.op_class::SimdAlu                       0      0.00%     79.66% # Class of executed instruction
system.cpu0.op_class::SimdCmp                       0      0.00%     79.66% # Class of executed instruction
system.cpu0.op_class::SimdCvt                       0      0.00%     79.66% # Class of executed instruction
system.cpu0.op_class::SimdMisc                      0      0.00%     79.66% # Class of executed instruction
system.cpu0.op_class::SimdMult                      0      0.00%     79.66% # Class of executed instruction
system.cpu0.op_class::SimdMultAcc                   0      0.00%     79.66% # Class of executed instruction
system.cpu0.op_class::SimdShift                     0      0.00%     79.66% # Class of executed instruction
system.cpu0.op_class::SimdShiftAcc                  0      0.00%     79.66% # Class of executed instruction
system.cpu0.op_class::SimdSqrt                      0      0.00%     79.66% # Class of executed instruction
system.cpu0.op_class::SimdFloatAdd                  0      0.00%     79.66% # Class of executed instruction
system.cpu0.op_class::SimdFloatAlu                  0      0.00%     79.66% # Class of executed instruction
system.cpu0.op_class::SimdFloatCmp                  0      0.00%     79.66% # Class of executed instruction
system.cpu0.op_class::SimdFloatCvt                  0      0.00%     79.66% # Class of executed instruction
system.cpu0.op_class::SimdFloatDiv                  0      0.00%     79.66% # Class of executed instruction
system.cpu0.op_class::SimdFloatMisc                 0      0.00%     79.66% # Class of executed instruction
system.cpu0.op_class::SimdFloatMult                 0      0.00%     79.66% # Class of executed instruction
system.cpu0.op_class::SimdFloatMultAcc              0      0.00%     79.66% # Class of executed instruction
system.cpu0.op_class::SimdFloatSqrt                 0      0.00%     79.66% # Class of executed instruction
system.cpu0.op_class::MemRead                  359444     12.64%     92.29% # Class of executed instruction
system.cpu0.op_class::MemWrite                 219189      7.71%    100.00% # Class of executed instruction
system.cpu0.op_class::IprAccess                     0      0.00%    100.00% # Class of executed instruction
system.cpu0.op_class::InstPrefetch                  0      0.00%    100.00% # Class of executed instruction
system.cpu0.op_class::total                   2844135                       # Class of executed instruction
system.cpu1.apic_clk_domain.clock                8000                       # Clock period in ticks
system.cpu1.numCycles                      1453858994                       # number of cpu cycles simulated
system.cpu1.numWorkItemsStarted                     0                       # number of work items this cpu started
system.cpu1.numWorkItemsCompleted                   0                       # number of work items this cpu completed
system.cpu1.kern.inst.arm                           0                       # number of arm instructions executed
system.cpu1.kern.inst.quiesce                       0                       # number of quiesce instructions executed
system.cpu1.committedInsts                    3687116                       # Number of instructions committed
system.cpu1.committedOps                      7220612                       # Number of ops (including micro ops) committed
system.cpu1.num_int_alu_accesses              7109330                       # Number of integer alu accesses
system.cpu1.num_fp_alu_accesses                  1928                       # Number of float alu accesses
system.cpu1.num_func_calls                     169077                       # number of times a function call or return occured
system.cpu1.num_conditional_control_insts       658440                       # number of instructions that are conditional controls
system.cpu1.num_int_insts                     7109330                       # number of integer instructions
system.cpu1.num_fp_insts                         1928                       # number of float instructions
system.cpu1.num_int_register_reads           13889230                       # number of times the integer registers were read
system.cpu1.num_int_register_writes           5769839                       # number of times the integer registers were written
system.cpu1.num_fp_register_reads                3235                       # number of times the floating registers were read
system.cpu1.num_fp_register_writes               1535                       # number of times the floating registers were written
system.cpu1.num_cc_register_reads             4750101                       # number of times the CC registers were read
system.cpu1.num_cc_register_writes            2572285                       # number of times the CC registers were written
system.cpu1.num_mem_refs                      1496066                       # number of memory refs
system.cpu1.num_load_insts                     979268                       # Number of load instructions
system.cpu1.num_store_insts                    516798                       # Number of store instructions
system.cpu1.num_idle_cycles              1437976493.924029                       # Number of idle cycles
system.cpu1.num_busy_cycles              15882500.075971                       # Number of busy cycles
system.cpu1.not_idle_fraction                0.010924                       # Percentage of non-idle cycles
system.cpu1.idle_fraction                    0.989076                       # Percentage of idle cycles
system.cpu1.Branches                           864090                       # Number of branches fetched
system.cpu1.op_class::No_OpClass                33381      0.46%      0.46% # Class of executed instruction
system.cpu1.op_class::IntAlu                  5676469     78.61%     79.08% # Class of executed instruction
system.cpu1.op_class::IntMult                    8069      0.11%     79.19% # Class of executed instruction
system.cpu1.op_class::IntDiv                     5274      0.07%     79.26% # Class of executed instruction
system.cpu1.op_class::FloatAdd                   1446      0.02%     79.28% # Class of executed instruction
system.cpu1.op_class::FloatCmp                      0      0.00%     79.28% # Class of executed instruction
system.cpu1.op_class::FloatCvt                      0      0.00%     79.28% # Class of executed instruction
system.cpu1.op_class::FloatMult                     0      0.00%     79.28% # Class of executed instruction
system.cpu1.op_class::FloatDiv                      0      0.00%     79.28% # Class of executed instruction
system.cpu1.op_class::FloatSqrt                     0      0.00%     79.28% # Class of executed instruction
system.cpu1.op_class::SimdAdd                       0      0.00%     79.28% # Class of executed instruction
system.cpu1.op_class::SimdAddAcc                    0      0.00%     79.28% # Class of executed instruction
system.cpu1.op_class::SimdAlu                       0      0.00%     79.28% # Class of executed instruction
system.cpu1.op_class::SimdCmp                       0      0.00%     79.28% # Class of executed instruction
system.cpu1.op_class::SimdCvt                       0      0.00%     79.28% # Class of executed instruction
system.cpu1.op_class::SimdMisc                      0      0.00%     79.28% # Class of executed instruction
system.cpu1.op_class::SimdMult                      0      0.00%     79.28% # Class of executed instruction
system.cpu1.op_class::SimdMultAcc                   0      0.00%     79.28% # Class of executed instruction
system.cpu1.op_class::SimdShift                     0      0.00%     79.28% # Class of executed instruction
system.cpu1.op_class::SimdShiftAcc                  0      0.00%     79.28% # Class of executed instruction
system.cpu1.op_class::SimdSqrt                      0      0.00%     79.28% # Class of executed instruction
system.cpu1.op_class::SimdFloatAdd                  0      0.00%     79.28% # Class of executed instruction
system.cpu1.op_class::SimdFloatAlu                  0      0.00%     79.28% # Class of executed instruction
system.cpu1.op_class::SimdFloatCmp                  0      0.00%     79.28% # Class of executed instruction
system.cpu1.op_class::SimdFloatCvt                  0      0.00%     79.28% # Class of executed instruction
system.cpu1.op_class::SimdFloatDiv                  0      0.00%     79.28% # Class of executed instruction
system.cpu1.op_class::SimdFloatMisc                 0      0.00%     79.28% # Class of executed instruction
system.cpu1.op_class::SimdFloatMult                 0      0.00%     79.28% # Class of executed instruction
system.cpu1.op_class::SimdFloatMultAcc              0      0.00%     79.28% # Class of executed instruction
system.cpu1.op_class::SimdFloatSqrt                 0      0.00%     79.28% # Class of executed instruction
system.cpu1.op_class::MemRead                  979268     13.56%     92.84% # Class of executed instruction
system.cpu1.op_class::MemWrite                 516798      7.16%    100.00% # Class of executed instruction
system.cpu1.op_class::IprAccess                     0      0.00%    100.00% # Class of executed instruction
system.cpu1.op_class::InstPrefetch                  0      0.00%    100.00% # Class of executed instruction
system.cpu1.op_class::total                   7220705                       # Class of executed instruction
system.cpu2.apic_clk_domain.clock                8000                       # Clock period in ticks
system.cpu2.numCycles                      1455909167                       # number of cpu cycles simulated
system.cpu2.numWorkItemsStarted                     0                       # number of work items this cpu started
system.cpu2.numWorkItemsCompleted                   0                       # number of work items this cpu completed
system.cpu2.kern.inst.arm                           0                       # number of arm instructions executed
system.cpu2.kern.inst.quiesce                       0                       # number of quiesce instructions executed
system.cpu2.committedInsts                  269269457                       # Number of instructions committed
system.cpu2.committedOps                    442543917                       # Number of ops (including micro ops) committed
system.cpu2.num_int_alu_accesses            346517925                       # Number of integer alu accesses
system.cpu2.num_fp_alu_accesses             109594681                       # Number of float alu accesses
system.cpu2.num_func_calls                    5374724                       # number of times a function call or return occured
system.cpu2.num_conditional_control_insts     16416743                       # number of instructions that are conditional controls
system.cpu2.num_int_insts                   346517925                       # number of integer instructions
system.cpu2.num_fp_insts                    109594681                       # number of float instructions
system.cpu2.num_int_register_reads          737068037                       # number of times the integer registers were read
system.cpu2.num_int_register_writes         276043942                       # number of times the integer registers were written
system.cpu2.num_fp_register_reads           204618310                       # number of times the floating registers were read
system.cpu2.num_fp_register_writes          105641720                       # number of times the floating registers were written
system.cpu2.num_cc_register_reads           177435263                       # number of times the CC registers were read
system.cpu2.num_cc_register_writes          152771658                       # number of times the CC registers were written
system.cpu2.num_mem_refs                     92881645                       # number of memory refs
system.cpu2.num_load_insts                   73857146                       # Number of load instructions
system.cpu2.num_store_insts                  19024499                       # Number of store instructions
system.cpu2.num_idle_cycles              18217565.266441                       # Number of idle cycles
system.cpu2.num_busy_cycles              1437691601.733559                       # Number of busy cycles
system.cpu2.not_idle_fraction                0.987487                       # Percentage of non-idle cycles
system.cpu2.idle_fraction                    0.012513                       # Percentage of idle cycles
system.cpu2.Branches                         26487164                       # Number of branches fetched
system.cpu2.op_class::No_OpClass              3912643      0.88%      0.88% # Class of executed instruction
system.cpu2.op_class::IntAlu                254733438     57.56%     58.44% # Class of executed instruction
system.cpu2.op_class::IntMult                    2593      0.00%     58.45% # Class of executed instruction
system.cpu2.op_class::IntDiv                      567      0.00%     58.45% # Class of executed instruction
system.cpu2.op_class::FloatAdd               91015565     20.57%     79.01% # Class of executed instruction
system.cpu2.op_class::FloatCmp                      0      0.00%     79.01% # Class of executed instruction
system.cpu2.op_class::FloatCvt                      0      0.00%     79.01% # Class of executed instruction
system.cpu2.op_class::FloatMult                     0      0.00%     79.01% # Class of executed instruction
system.cpu2.op_class::FloatDiv                      0      0.00%     79.01% # Class of executed instruction
system.cpu2.op_class::FloatSqrt                     0      0.00%     79.01% # Class of executed instruction
system.cpu2.op_class::SimdAdd                       0      0.00%     79.01% # Class of executed instruction
system.cpu2.op_class::SimdAddAcc                    0      0.00%     79.01% # Class of executed instruction
system.cpu2.op_class::SimdAlu                       0      0.00%     79.01% # Class of executed instruction
system.cpu2.op_class::SimdCmp                       0      0.00%     79.01% # Class of executed instruction
system.cpu2.op_class::SimdCvt                       0      0.00%     79.01% # Class of executed instruction
system.cpu2.op_class::SimdMisc                      0      0.00%     79.01% # Class of executed instruction
system.cpu2.op_class::SimdMult                      0      0.00%     79.01% # Class of executed instruction
system.cpu2.op_class::SimdMultAcc                   0      0.00%     79.01% # Class of executed instruction
system.cpu2.op_class::SimdShift                     0      0.00%     79.01% # Class of executed instruction
system.cpu2.op_class::SimdShiftAcc                  0      0.00%     79.01% # Class of executed instruction
system.cpu2.op_class::SimdSqrt                      0      0.00%     79.01% # Class of executed instruction
system.cpu2.op_class::SimdFloatAdd                  0      0.00%     79.01% # Class of executed instruction
system.cpu2.op_class::SimdFloatAlu                  0      0.00%     79.01% # Class of executed instruction
system.cpu2.op_class::SimdFloatCmp                  0      0.00%     79.01% # Class of executed instruction
system.cpu2.op_class::SimdFloatCvt                  0      0.00%     79.01% # Class of executed instruction
system.cpu2.op_class::SimdFloatDiv                  0      0.00%     79.01% # Class of executed instruction
system.cpu2.op_class::SimdFloatMisc                 0      0.00%     79.01% # Class of executed instruction
system.cpu2.op_class::SimdFloatMult                 0      0.00%     79.01% # Class of executed instruction
system.cpu2.op_class::SimdFloatMultAcc              0      0.00%     79.01% # Class of executed instruction
system.cpu2.op_class::SimdFloatSqrt                 0      0.00%     79.01% # Class of executed instruction
system.cpu2.op_class::MemRead                73857146     16.69%     95.70% # Class of executed instruction
system.cpu2.op_class::MemWrite               19024499      4.30%    100.00% # Class of executed instruction
system.cpu2.op_class::IprAccess                     0      0.00%    100.00% # Class of executed instruction
system.cpu2.op_class::InstPrefetch                  0      0.00%    100.00% # Class of executed instruction
system.cpu2.op_class::total                 442546451                       # Class of executed instruction
system.cpu3.apic_clk_domain.clock                8000                       # Clock period in ticks
system.cpu3.numCycles                      1457081797                       # number of cpu cycles simulated
system.cpu3.numWorkItemsStarted                     0                       # number of work items this cpu started
system.cpu3.numWorkItemsCompleted                   0                       # number of work items this cpu completed
system.cpu3.kern.inst.arm                           0                       # number of arm instructions executed
system.cpu3.kern.inst.quiesce                       0                       # number of quiesce instructions executed
system.cpu3.committedInsts                    2031916                       # Number of instructions committed
system.cpu3.committedOps                      4059688                       # Number of ops (including micro ops) committed
system.cpu3.num_int_alu_accesses              3956892                       # Number of integer alu accesses
system.cpu3.num_fp_alu_accesses                   372                       # Number of float alu accesses
system.cpu3.num_func_calls                      83056                       # number of times a function call or return occured
system.cpu3.num_conditional_control_insts       355282                       # number of instructions that are conditional controls
system.cpu3.num_int_insts                     3956892                       # number of integer instructions
system.cpu3.num_fp_insts                          372                       # number of float instructions
system.cpu3.num_int_register_reads            7582054                       # number of times the integer registers were read
system.cpu3.num_int_register_writes           3229351                       # number of times the integer registers were written
system.cpu3.num_fp_register_reads                 596                       # number of times the floating registers were read
system.cpu3.num_fp_register_writes                261                       # number of times the floating registers were written
system.cpu3.num_cc_register_reads             2588172                       # number of times the CC registers were read
system.cpu3.num_cc_register_writes            1579458                       # number of times the CC registers were written
system.cpu3.num_mem_refs                       780110                       # number of memory refs
system.cpu3.num_load_insts                     482768                       # Number of load instructions
system.cpu3.num_store_insts                    297342                       # Number of store instructions
system.cpu3.num_idle_cycles              1446090051.599777                       # Number of idle cycles
system.cpu3.num_busy_cycles              10991745.400223                       # Number of busy cycles
system.cpu3.not_idle_fraction                0.007544                       # Percentage of non-idle cycles
system.cpu3.idle_fraction                    0.992456                       # Percentage of idle cycles
system.cpu3.Branches                           467385                       # Number of branches fetched
system.cpu3.op_class::No_OpClass                25551      0.63%      0.63% # Class of executed instruction
system.cpu3.op_class::IntAlu                  3243499     79.89%     80.52% # Class of executed instruction
system.cpu3.op_class::IntMult                    3628      0.09%     80.61% # Class of executed instruction
system.cpu3.op_class::IntDiv                     6744      0.17%     80.78% # Class of executed instruction
system.cpu3.op_class::FloatAdd                    244      0.01%     80.78% # Class of executed instruction
system.cpu3.op_class::FloatCmp                      0      0.00%     80.78% # Class of executed instruction
system.cpu3.op_class::FloatCvt                      0      0.00%     80.78% # Class of executed instruction
system.cpu3.op_class::FloatMult                     0      0.00%     80.78% # Class of executed instruction
system.cpu3.op_class::FloatDiv                      0      0.00%     80.78% # Class of executed instruction
system.cpu3.op_class::FloatSqrt                     0      0.00%     80.78% # Class of executed instruction
system.cpu3.op_class::SimdAdd                       0      0.00%     80.78% # Class of executed instruction
system.cpu3.op_class::SimdAddAcc                    0      0.00%     80.78% # Class of executed instruction
system.cpu3.op_class::SimdAlu                       0      0.00%     80.78% # Class of executed instruction
system.cpu3.op_class::SimdCmp                       0      0.00%     80.78% # Class of executed instruction
system.cpu3.op_class::SimdCvt                       0      0.00%     80.78% # Class of executed instruction
system.cpu3.op_class::SimdMisc                      0      0.00%     80.78% # Class of executed instruction
system.cpu3.op_class::SimdMult                      0      0.00%     80.78% # Class of executed instruction
system.cpu3.op_class::SimdMultAcc                   0      0.00%     80.78% # Class of executed instruction
system.cpu3.op_class::SimdShift                     0      0.00%     80.78% # Class of executed instruction
system.cpu3.op_class::SimdShiftAcc                  0      0.00%     80.78% # Class of executed instruction
system.cpu3.op_class::SimdSqrt                      0      0.00%     80.78% # Class of executed instruction
system.cpu3.op_class::SimdFloatAdd                  0      0.00%     80.78% # Class of executed instruction
system.cpu3.op_class::SimdFloatAlu                  0      0.00%     80.78% # Class of executed instruction
system.cpu3.op_class::SimdFloatCmp                  0      0.00%     80.78% # Class of executed instruction
system.cpu3.op_class::SimdFloatCvt                  0      0.00%     80.78% # Class of executed instruction
system.cpu3.op_class::SimdFloatDiv                  0      0.00%     80.78% # Class of executed instruction
system.cpu3.op_class::SimdFloatMisc                 0      0.00%     80.78% # Class of executed instruction
system.cpu3.op_class::SimdFloatMult                 0      0.00%     80.78% # Class of executed instruction
system.cpu3.op_class::SimdFloatMultAcc              0      0.00%     80.78% # Class of executed instruction
system.cpu3.op_class::SimdFloatSqrt                 0      0.00%     80.78% # Class of executed instruction
system.cpu3.op_class::MemRead                  482768     11.89%     92.68% # Class of executed instruction
system.cpu3.op_class::MemWrite                 297342      7.32%    100.00% # Class of executed instruction
system.cpu3.op_class::IprAccess                     0      0.00%    100.00% # Class of executed instruction
system.cpu3.op_class::InstPrefetch                  0      0.00%    100.00% # Class of executed instruction
system.cpu3.op_class::total                   4059776                       # Class of executed instruction
system.iobus.trans_dist::ReadReq                  554                       # Transaction distribution
system.iobus.trans_dist::ReadResp                 554                       # Transaction distribution
system.iobus.trans_dist::WriteReq                1741                       # Transaction distribution
system.iobus.trans_dist::WriteResp               1741                       # Transaction distribution
system.iobus.trans_dist::MessageReq                75                       # Transaction distribution
system.iobus.trans_dist::MessageResp               75                       # Transaction distribution
system.iobus.pkt_count_system.pc.south_bridge.io_apic.int_master::system.ruby.l1_cntrl0.sequencer.pio-slave-port           30                       # Packet count per connected master and slave (bytes)
system.iobus.pkt_count_system.pc.south_bridge.io_apic.int_master::system.ruby.l1_cntrl1.sequencer.pio-slave-port           32                       # Packet count per connected master and slave (bytes)
system.iobus.pkt_count_system.pc.south_bridge.io_apic.int_master::system.ruby.l1_cntrl2.sequencer.pio-slave-port           32                       # Packet count per connected master and slave (bytes)
system.iobus.pkt_count_system.pc.south_bridge.io_apic.int_master::system.ruby.l1_cntrl3.sequencer.pio-slave-port           30                       # Packet count per connected master and slave (bytes)
system.iobus.pkt_count_system.pc.south_bridge.io_apic.int_master::total          124                       # Packet count per connected master and slave (bytes)
system.iobus.pkt_count_system.ruby.l1_cntrl0.sequencer.mem-master-port::system.pc.south_bridge.ide.pio          610                       # Packet count per connected master and slave (bytes)
system.iobus.pkt_count_system.ruby.l1_cntrl0.sequencer.mem-master-port::system.pc.south_bridge.io_apic.pio            6                       # Packet count per connected master and slave (bytes)
system.iobus.pkt_count_system.ruby.l1_cntrl0.sequencer.mem-master-port::system.pc.com_1.pio          174                       # Packet count per connected master and slave (bytes)
system.iobus.pkt_count_system.ruby.l1_cntrl0.sequencer.mem-master-port::system.ruby.l1_cntrl0.sequencer.pio-slave-port          414                       # Packet count per connected master and slave (bytes)
system.iobus.pkt_count_system.ruby.l1_cntrl0.sequencer.mem-master-port::system.ruby.l1_cntrl1.sequencer.pio-slave-port            2                       # Packet count per connected master and slave (bytes)
system.iobus.pkt_count_system.ruby.l1_cntrl0.sequencer.mem-master-port::system.ruby.l1_cntrl3.sequencer.pio-slave-port            2                       # Packet count per connected master and slave (bytes)
system.iobus.pkt_count_system.ruby.l1_cntrl0.sequencer.mem-master-port::total         1208                       # Packet count per connected master and slave (bytes)
system.iobus.pkt_count_system.ruby.l1_cntrl1.sequencer.mem-master-port::system.pc.south_bridge.ide.pio          860                       # Packet count per connected master and slave (bytes)
system.iobus.pkt_count_system.ruby.l1_cntrl1.sequencer.mem-master-port::system.pc.south_bridge.io_apic.pio            8                       # Packet count per connected master and slave (bytes)
system.iobus.pkt_count_system.ruby.l1_cntrl1.sequencer.mem-master-port::system.ruby.l1_cntrl0.sequencer.pio-slave-port            2                       # Packet count per connected master and slave (bytes)
system.iobus.pkt_count_system.ruby.l1_cntrl1.sequencer.mem-master-port::system.ruby.l1_cntrl1.sequencer.pio-slave-port          418                       # Packet count per connected master and slave (bytes)
system.iobus.pkt_count_system.ruby.l1_cntrl1.sequencer.mem-master-port::system.ruby.l1_cntrl2.sequencer.pio-slave-port            2                       # Packet count per connected master and slave (bytes)
system.iobus.pkt_count_system.ruby.l1_cntrl1.sequencer.mem-master-port::system.ruby.l1_cntrl3.sequencer.pio-slave-port            2                       # Packet count per connected master and slave (bytes)
system.iobus.pkt_count_system.ruby.l1_cntrl1.sequencer.mem-master-port::total         1292                       # Packet count per connected master and slave (bytes)
system.iobus.pkt_count_system.ruby.l1_cntrl2.sequencer.mem-master-port::system.pc.south_bridge.ide.pio          588                       # Packet count per connected master and slave (bytes)
system.iobus.pkt_count_system.ruby.l1_cntrl2.sequencer.mem-master-port::system.pc.south_bridge.io_apic.pio            8                       # Packet count per connected master and slave (bytes)
system.iobus.pkt_count_system.ruby.l1_cntrl2.sequencer.mem-master-port::system.pc.com_1.pio            2                       # Packet count per connected master and slave (bytes)
system.iobus.pkt_count_system.ruby.l1_cntrl2.sequencer.mem-master-port::system.ruby.l1_cntrl0.sequencer.pio-slave-port            2                       # Packet count per connected master and slave (bytes)
system.iobus.pkt_count_system.ruby.l1_cntrl2.sequencer.mem-master-port::system.ruby.l1_cntrl1.sequencer.pio-slave-port            2                       # Packet count per connected master and slave (bytes)
system.iobus.pkt_count_system.ruby.l1_cntrl2.sequencer.mem-master-port::system.ruby.l1_cntrl2.sequencer.pio-slave-port          420                       # Packet count per connected master and slave (bytes)
system.iobus.pkt_count_system.ruby.l1_cntrl2.sequencer.mem-master-port::system.ruby.l1_cntrl3.sequencer.pio-slave-port            4                       # Packet count per connected master and slave (bytes)
system.iobus.pkt_count_system.ruby.l1_cntrl2.sequencer.mem-master-port::total         1026                       # Packet count per connected master and slave (bytes)
system.iobus.pkt_count_system.ruby.l1_cntrl3.sequencer.mem-master-port::system.pc.south_bridge.ide.pio          656                       # Packet count per connected master and slave (bytes)
system.iobus.pkt_count_system.ruby.l1_cntrl3.sequencer.mem-master-port::system.ruby.l1_cntrl0.sequencer.pio-slave-port            4                       # Packet count per connected master and slave (bytes)
system.iobus.pkt_count_system.ruby.l1_cntrl3.sequencer.mem-master-port::system.ruby.l1_cntrl2.sequencer.pio-slave-port            4                       # Packet count per connected master and slave (bytes)
system.iobus.pkt_count_system.ruby.l1_cntrl3.sequencer.mem-master-port::system.ruby.l1_cntrl3.sequencer.pio-slave-port          426                       # Packet count per connected master and slave (bytes)
system.iobus.pkt_count_system.ruby.l1_cntrl3.sequencer.mem-master-port::total         1090                       # Packet count per connected master and slave (bytes)
system.iobus.pkt_count::total                    4740                       # Packet count per connected master and slave (bytes)
system.iobus.pkt_size_system.pc.south_bridge.io_apic.int_master::system.ruby.l1_cntrl0.sequencer.pio-slave-port           60                       # Cumulative packet size per connected master and slave (bytes)
system.iobus.pkt_size_system.pc.south_bridge.io_apic.int_master::system.ruby.l1_cntrl1.sequencer.pio-slave-port           64                       # Cumulative packet size per connected master and slave (bytes)
system.iobus.pkt_size_system.pc.south_bridge.io_apic.int_master::system.ruby.l1_cntrl2.sequencer.pio-slave-port           64                       # Cumulative packet size per connected master and slave (bytes)
system.iobus.pkt_size_system.pc.south_bridge.io_apic.int_master::system.ruby.l1_cntrl3.sequencer.pio-slave-port           60                       # Cumulative packet size per connected master and slave (bytes)
system.iobus.pkt_size_system.pc.south_bridge.io_apic.int_master::total          248                       # Cumulative packet size per connected master and slave (bytes)
system.iobus.pkt_size_system.ruby.l1_cntrl0.sequencer.mem-master-port::system.pc.south_bridge.ide.pio          344                       # Cumulative packet size per connected master and slave (bytes)
system.iobus.pkt_size_system.ruby.l1_cntrl0.sequencer.mem-master-port::system.pc.south_bridge.io_apic.pio           12                       # Cumulative packet size per connected master and slave (bytes)
system.iobus.pkt_size_system.ruby.l1_cntrl0.sequencer.mem-master-port::system.pc.com_1.pio           87                       # Cumulative packet size per connected master and slave (bytes)
system.iobus.pkt_size_system.ruby.l1_cntrl0.sequencer.mem-master-port::system.ruby.l1_cntrl0.sequencer.pio-slave-port          828                       # Cumulative packet size per connected master and slave (bytes)
system.iobus.pkt_size_system.ruby.l1_cntrl0.sequencer.mem-master-port::system.ruby.l1_cntrl1.sequencer.pio-slave-port            4                       # Cumulative packet size per connected master and slave (bytes)
system.iobus.pkt_size_system.ruby.l1_cntrl0.sequencer.mem-master-port::system.ruby.l1_cntrl3.sequencer.pio-slave-port            4                       # Cumulative packet size per connected master and slave (bytes)
system.iobus.pkt_size_system.ruby.l1_cntrl0.sequencer.mem-master-port::total         1279                       # Cumulative packet size per connected master and slave (bytes)
system.iobus.pkt_size_system.ruby.l1_cntrl1.sequencer.mem-master-port::system.pc.south_bridge.ide.pio          490                       # Cumulative packet size per connected master and slave (bytes)
system.iobus.pkt_size_system.ruby.l1_cntrl1.sequencer.mem-master-port::system.pc.south_bridge.io_apic.pio           16                       # Cumulative packet size per connected master and slave (bytes)
system.iobus.pkt_size_system.ruby.l1_cntrl1.sequencer.mem-master-port::system.ruby.l1_cntrl0.sequencer.pio-slave-port            4                       # Cumulative packet size per connected master and slave (bytes)
system.iobus.pkt_size_system.ruby.l1_cntrl1.sequencer.mem-master-port::system.ruby.l1_cntrl1.sequencer.pio-slave-port          836                       # Cumulative packet size per connected master and slave (bytes)
system.iobus.pkt_size_system.ruby.l1_cntrl1.sequencer.mem-master-port::system.ruby.l1_cntrl2.sequencer.pio-slave-port            4                       # Cumulative packet size per connected master and slave (bytes)
system.iobus.pkt_size_system.ruby.l1_cntrl1.sequencer.mem-master-port::system.ruby.l1_cntrl3.sequencer.pio-slave-port            4                       # Cumulative packet size per connected master and slave (bytes)
system.iobus.pkt_size_system.ruby.l1_cntrl1.sequencer.mem-master-port::total         1354                       # Cumulative packet size per connected master and slave (bytes)
system.iobus.pkt_size_system.ruby.l1_cntrl2.sequencer.mem-master-port::system.pc.south_bridge.ide.pio          330                       # Cumulative packet size per connected master and slave (bytes)
system.iobus.pkt_size_system.ruby.l1_cntrl2.sequencer.mem-master-port::system.pc.south_bridge.io_apic.pio           16                       # Cumulative packet size per connected master and slave (bytes)
system.iobus.pkt_size_system.ruby.l1_cntrl2.sequencer.mem-master-port::system.pc.com_1.pio            1                       # Cumulative packet size per connected master and slave (bytes)
system.iobus.pkt_size_system.ruby.l1_cntrl2.sequencer.mem-master-port::system.ruby.l1_cntrl0.sequencer.pio-slave-port            4                       # Cumulative packet size per connected master and slave (bytes)
system.iobus.pkt_size_system.ruby.l1_cntrl2.sequencer.mem-master-port::system.ruby.l1_cntrl1.sequencer.pio-slave-port            4                       # Cumulative packet size per connected master and slave (bytes)
system.iobus.pkt_size_system.ruby.l1_cntrl2.sequencer.mem-master-port::system.ruby.l1_cntrl2.sequencer.pio-slave-port          840                       # Cumulative packet size per connected master and slave (bytes)
system.iobus.pkt_size_system.ruby.l1_cntrl2.sequencer.mem-master-port::system.ruby.l1_cntrl3.sequencer.pio-slave-port            8                       # Cumulative packet size per connected master and slave (bytes)
system.iobus.pkt_size_system.ruby.l1_cntrl2.sequencer.mem-master-port::total         1203                       # Cumulative packet size per connected master and slave (bytes)
system.iobus.pkt_size_system.ruby.l1_cntrl3.sequencer.mem-master-port::system.pc.south_bridge.ide.pio          370                       # Cumulative packet size per connected master and slave (bytes)
system.iobus.pkt_size_system.ruby.l1_cntrl3.sequencer.mem-master-port::system.ruby.l1_cntrl0.sequencer.pio-slave-port            8                       # Cumulative packet size per connected master and slave (bytes)
system.iobus.pkt_size_system.ruby.l1_cntrl3.sequencer.mem-master-port::system.ruby.l1_cntrl2.sequencer.pio-slave-port            8                       # Cumulative packet size per connected master and slave (bytes)
system.iobus.pkt_size_system.ruby.l1_cntrl3.sequencer.mem-master-port::system.ruby.l1_cntrl3.sequencer.pio-slave-port          852                       # Cumulative packet size per connected master and slave (bytes)
system.iobus.pkt_size_system.ruby.l1_cntrl3.sequencer.mem-master-port::total         1238                       # Cumulative packet size per connected master and slave (bytes)
system.iobus.pkt_size::total                     5322                       # Cumulative packet size per connected master and slave (bytes)
system.iobus.reqLayer2.occupancy              2363500                       # Layer occupancy (ticks)
system.iobus.reqLayer2.utilization                0.0                       # Layer utilization (%)
system.iobus.reqLayer8.occupancy                19997                       # Layer occupancy (ticks)
system.iobus.reqLayer8.utilization                0.0                       # Layer utilization (%)
system.iobus.reqLayer12.occupancy              112000                       # Layer occupancy (ticks)
system.iobus.reqLayer12.utilization               0.0                       # Layer utilization (%)
system.iobus.reqLayer17.occupancy              546984                       # Layer occupancy (ticks)
system.iobus.reqLayer17.utilization               0.0                       # Layer utilization (%)
system.iobus.reqLayer18.occupancy              558482                       # Layer occupancy (ticks)
system.iobus.reqLayer18.utilization               0.0                       # Layer utilization (%)
system.iobus.reqLayer19.occupancy              616290                       # Layer occupancy (ticks)
system.iobus.reqLayer19.utilization               0.0                       # Layer utilization (%)
system.iobus.reqLayer20.occupancy              565484                       # Layer occupancy (ticks)
system.iobus.reqLayer20.utilization               0.0                       # Layer utilization (%)
system.iobus.respLayer0.occupancy              107941                       # Layer occupancy (ticks)
system.iobus.respLayer0.utilization               0.0                       # Layer utilization (%)
system.iobus.respLayer2.occupancy              883500                       # Layer occupancy (ticks)
system.iobus.respLayer2.utilization               0.0                       # Layer utilization (%)
system.iobus.respLayer4.occupancy              895500                       # Layer occupancy (ticks)
system.iobus.respLayer4.utilization               0.0                       # Layer utilization (%)
system.iobus.respLayer6.occupancy              731000                       # Layer occupancy (ticks)
system.iobus.respLayer6.utilization               0.0                       # Layer utilization (%)
system.iobus.respLayer8.occupancy              771500                       # Layer occupancy (ticks)
system.iobus.respLayer8.utilization               0.0                       # Layer utilization (%)
system.pc.south_bridge.ide.disks.dma_read_full_pages          886                       # Number of full page size DMA reads (not PRD).
system.pc.south_bridge.ide.disks.dma_read_bytes      3629056                       # Number of bytes transfered via DMA reads (not PRD).
system.pc.south_bridge.ide.disks.dma_read_txs          886                       # Number of DMA read transactions (not PRD).
system.pc.south_bridge.ide.disks.dma_write_full_pages           37                       # Number of full page size DMA writes.
system.pc.south_bridge.ide.disks.dma_write_bytes       151552                       # Number of bytes transfered via DMA writes.
system.pc.south_bridge.ide.disks.dma_write_txs           37                       # Number of DMA write transactions.
system.ruby.clk_domain.clock                      500                       # Clock period in ticks
system.ruby.outstanding_req_hist_seqr::bucket_size            1                      
system.ruby.outstanding_req_hist_seqr::max_bucket            9                      
system.ruby.outstanding_req_hist_seqr::samples    485886153                      
system.ruby.outstanding_req_hist_seqr::mean     1.000000                      
system.ruby.outstanding_req_hist_seqr::gmean     1.000000                      
system.ruby.outstanding_req_hist_seqr::stdev     0.000682                      
system.ruby.outstanding_req_hist_seqr    |           0      0.00%      0.00% |   485885927    100.00%    100.00% |         226      0.00%    100.00% |           0      0.00%    100.00% |           0      0.00%    100.00% |           0      0.00%    100.00% |           0      0.00%    100.00% |           0      0.00%    100.00% |           0      0.00%    100.00% |           0      0.00%    100.00%
system.ruby.outstanding_req_hist_seqr::total    485886153                      
system.ruby.latency_hist_seqr::bucket_size          256                      
system.ruby.latency_hist_seqr::max_bucket         2559                      
system.ruby.latency_hist_seqr::samples      485886153                      
system.ruby.latency_hist_seqr::mean          2.024121                      
system.ruby.latency_hist_seqr::gmean         1.057520                      
system.ruby.latency_hist_seqr::stdev        12.509163                      
system.ruby.latency_hist_seqr            |   485811100     99.98%     99.98% |       44020      0.01%     99.99% |       30535      0.01%    100.00% |         484      0.00%    100.00% |          13      0.00%    100.00% |           1      0.00%    100.00% |           0      0.00%    100.00% |           0      0.00%    100.00% |           0      0.00%    100.00% |           0      0.00%    100.00%
system.ruby.latency_hist_seqr::total        485886153                      
system.ruby.hit_latency_hist_seqr::bucket_size            1                      
system.ruby.hit_latency_hist_seqr::max_bucket            9                      
system.ruby.hit_latency_hist_seqr::samples    478401533                      
system.ruby.hit_latency_hist_seqr::mean             1                      
system.ruby.hit_latency_hist_seqr::gmean            1                      
[...]
system.ruby.L1Cache_Controller.M.L1_Replacement::total      2211042                      
system.ruby.L1Cache_Controller.M.Fwd_GETX |         523     31.37%     31.37% |         290     17.40%     48.77% |         593     35.57%     84.34% |         261     15.66%    100.00%
system.ruby.L1Cache_Controller.M.Fwd_GETX::total         1667                      
system.ruby.L1Cache_Controller.M.Fwd_GETS |        1753     26.92%     26.92% |         863     13.25%     40.17% |        1532     23.52%     63.69% |        2365     36.31%    100.00%
system.ruby.L1Cache_Controller.M.Fwd_GETS::total         6513                      
system.ruby.L1Cache_Controller.M_W.Load  |        3540      1.18%      1.18% |      136364     45.33%     46.51% |      152839     50.81%     97.32% |        8069      2.68%    100.00%
system.ruby.L1Cache_Controller.M_W.Load::total       300812                      
system.ruby.L1Cache_Controller.M_W.Store |        1060      1.89%      1.89% |       46336     82.66%     84.55% |        6948     12.40%     96.95% |        1710      3.05%    100.00%
system.ruby.L1Cache_Controller.M_W.Store::total        56054                      
system.ruby.L1Cache_Controller.M_W.L1_Replacement |           0      0.00%      0.00% |          23     27.06%     27.06% |          53     62.35%     89.41% |           9     10.59%    100.00%
system.ruby.L1Cache_Controller.M_W.L1_Replacement::total           85                      
system.ruby.L1Cache_Controller.M_W.Fwd_GETX |           3     11.54%     11.54% |           7     26.92%     38.46% |           4     15.38%     53.85% |          12     46.15%    100.00%
system.ruby.L1Cache_Controller.M_W.Fwd_GETX::total           26                      
system.ruby.L1Cache_Controller.M_W.Fwd_GETS |          24     12.44%     12.44% |          35     18.13%     30.57% |          59     30.57%     61.14% |          75     38.86%    100.00%
system.ruby.L1Cache_Controller.M_W.Fwd_GETS::total          193                      
system.ruby.L1Cache_Controller.M_W.Use_Timeout |        6809      0.27%      0.27% |     1038977     41.40%     41.67% |     1453103     57.90%     99.56% |       10942      0.44%    100.00%
system.ruby.L1Cache_Controller.M_W.Use_Timeout::total      2509831                      
system.ruby.L1Cache_Controller.MM.Load   |      381644      1.40%      1.40% |    10511148     38.46%     39.86% |    15968430     58.43%     98.29% |      466336      1.71%    100.00%
system.ruby.L1Cache_Controller.MM.Load::total     27327558                      
system.ruby.L1Cache_Controller.MM.Store  |      382764      1.17%      1.17% |    12275805     37.37%     38.54% |    19715818     60.02%     98.56% |      474363      1.44%    100.00%
system.ruby.L1Cache_Controller.MM.Store::total     32848750                      
system.ruby.L1Cache_Controller.MM.L1_Replacement |        8724      0.18%      0.18% |     2333397     48.20%     48.38% |     2469187     51.01%     99.39% |       29389      0.61%    100.00%
system.ruby.L1Cache_Controller.MM.L1_Replacement::total      4840697                      
system.ruby.L1Cache_Controller.MM.Fwd_GETX |         634     24.63%     24.63% |         651     25.29%     49.92% |         545     21.17%     71.10% |         744     28.90%    100.00%
system.ruby.L1Cache_Controller.MM.Fwd_GETX::total         2574                      
system.ruby.L1Cache_Controller.MM.Fwd_GETS |        3248     33.85%     33.85% |        2285     23.81%     57.66% |        1494     15.57%     73.23% |        2569     26.77%    100.00%
system.ruby.L1Cache_Controller.MM.Fwd_GETS::total         9596                      
system.ruby.L1Cache_Controller.MM.Fwd_DMA |          86     20.82%     20.82% |         192     46.49%     67.31% |          27      6.54%     73.85% |         108     26.15%    100.00%
system.ruby.L1Cache_Controller.MM.Fwd_DMA::total          413                      
system.ruby.L1Cache_Controller.MM_W.Load |        1573      3.20%      3.20% |       31671     64.46%     67.66% |        8078     16.44%     84.10% |        7810     15.90%    100.00%
system.ruby.L1Cache_Controller.MM_W.Load::total        49132                      
system.ruby.L1Cache_Controller.MM_W.Store |       31833      0.72%      0.72% |     1837737     41.78%     42.50% |     2418249     54.97%     97.47% |      111193      2.53%    100.00%
system.ruby.L1Cache_Controller.MM_W.Store::total      4399012                      
system.ruby.L1Cache_Controller.MM_W.L1_Replacement |           0      0.00%      0.00% |          34     26.15%     26.15% |          96     73.85%    100.00% |           0      0.00%    100.00%
system.ruby.L1Cache_Controller.MM_W.L1_Replacement::total          130                      
system.ruby.L1Cache_Controller.MM_W.Fwd_GETX |           3     17.65%     17.65% |           0      0.00%     17.65% |           6     35.29%     52.94% |           8     47.06%    100.00%
system.ruby.L1Cache_Controller.MM_W.Fwd_GETX::total           17                      
system.ruby.L1Cache_Controller.MM_W.Fwd_GETS |          37     12.13%     12.13% |          54     17.70%     29.84% |         109     35.74%     65.57% |         105     34.43%    100.00%
system.ruby.L1Cache_Controller.MM_W.Fwd_GETS::total          305                      
system.ruby.L1Cache_Controller.MM_W.Use_Timeout |       10561      0.23%      0.23% |     2168448     47.53%     47.76% |     2354526     51.61%     99.37% |       28691      0.63%    100.00%
system.ruby.L1Cache_Controller.MM_W.Use_Timeout::total      4562226                      
system.ruby.L1Cache_Controller.IM.Ack    |        2123     32.13%     32.13% |        1825     27.62%     59.75% |        1230     18.62%     78.37% |        1429     21.63%    100.00%
system.ruby.L1Cache_Controller.IM.Ack::total         6607                      
system.ruby.L1Cache_Controller.IM.Exclusive_Data |        6630      0.18%      0.18% |     1343150     36.41%     36.59% |     2323645     62.99%     99.59% |       15279      0.41%    100.00%
system.ruby.L1Cache_Controller.IM.Exclusive_Data::total      3688704                      
system.ruby.L1Cache_Controller.SM.Inv    |           0      0.00%      0.00% |           1    100.00%    100.00% |           0      0.00%    100.00% |           0      0.00%    100.00%
system.ruby.L1Cache_Controller.SM.Inv::total            1                      
system.ruby.L1Cache_Controller.SM.Ack    |        2377     44.41%     44.41% |         926     17.30%     61.70% |         960     17.93%     79.64% |        1090     20.36%    100.00%
system.ruby.L1Cache_Controller.SM.Ack::total         5353                      
system.ruby.L1Cache_Controller.SM.Exclusive_Data |        2861      0.35%      0.35% |      778935     95.30%     95.65% |       23846      2.92%     98.57% |       11667      1.43%    100.00%
system.ruby.L1Cache_Controller.SM.Exclusive_Data::total       817309                      
system.ruby.L1Cache_Controller.OM.Own_GETX |          10      6.29%      6.29% |          27     16.98%     23.27% |          87     54.72%     77.99% |          35     22.01%    100.00%
system.ruby.L1Cache_Controller.OM.Own_GETX::total          159                      
system.ruby.L1Cache_Controller.OM.Ack    |         155      8.50%      8.50% |         611     33.52%     42.02% |         438     24.03%     66.04% |         619     33.96%    100.00%
system.ruby.L1Cache_Controller.OM.Ack::total         1823                      
system.ruby.L1Cache_Controller.OM.All_acks |        9501      0.21%      0.21% |     2122112     47.09%     47.30% |     2347578     52.10%     99.40% |       26981      0.60%    100.00%
system.ruby.L1Cache_Controller.OM.All_acks::total      4506172                      
system.ruby.L1Cache_Controller.IS.Data   |       38395      0.55%      0.55% |     3315799     47.60%     48.15% |     3552194     51.00%     99.15% |       59324      0.85%    100.00%
system.ruby.L1Cache_Controller.IS.Data::total      6965712                      
system.ruby.L1Cache_Controller.IS.Exclusive_Data |        7869      0.31%      0.31% |     1085313     42.30%     42.60% |     1460051     56.90%     99.51% |       12652      0.49%    100.00%
system.ruby.L1Cache_Controller.IS.Exclusive_Data::total      2565885                      
system.ruby.L1Cache_Controller.SI.Load   |           1      3.33%      3.33% |          22     73.33%     76.67% |           7     23.33%    100.00% |           0      0.00%    100.00%
system.ruby.L1Cache_Controller.SI.Load::total           30                      
system.ruby.L1Cache_Controller.SI.Ifetch |           0      0.00%      0.00% |           6    100.00%    100.00% |           0      0.00%    100.00% |           0      0.00%    100.00%
system.ruby.L1Cache_Controller.SI.Ifetch::total            6                      
system.ruby.L1Cache_Controller.SI.Store  |           0      0.00%      0.00% |           0      0.00%      0.00% |           1    100.00%    100.00% |           0      0.00%    100.00%
system.ruby.L1Cache_Controller.SI.Store::total            1                      
system.ruby.L1Cache_Controller.SI.Writeback_Ack |       31599      0.83%      0.83% |     1251941     33.05%     33.88% |     2463408     65.03%     98.91% |       41148      1.09%    100.00%
system.ruby.L1Cache_Controller.SI.Writeback_Ack::total      3788096                      
system.ruby.L1Cache_Controller.SI.Writeback_Ack_Data |        3190      0.14%      0.14% |     1283846     54.50%     54.63% |     1063479     45.14%     99.78% |        5256      0.22%    100.00%
system.ruby.L1Cache_Controller.SI.Writeback_Ack_Data::total      2355771                      
system.ruby.L1Cache_Controller.OI.Writeback_Ack_Data |         329     31.85%     31.85% |         182     17.62%     49.47% |         332     32.14%     81.61% |         190     18.39%    100.00%
system.ruby.L1Cache_Controller.OI.Writeback_Ack_Data::total         1033                      
system.ruby.L1Cache_Controller.MI.Load   |           0      0.00%      0.00% |           5      7.94%      7.94% |           0      0.00%      7.94% |          58     92.06%    100.00%
system.ruby.L1Cache_Controller.MI.Load::total           63                      
system.ruby.L1Cache_Controller.MI.Store  |           0      0.00%      0.00% |           1     33.33%     33.33% |           2     66.67%    100.00% |           0      0.00%    100.00%
system.ruby.L1Cache_Controller.MI.Store::total            3                      
system.ruby.L1Cache_Controller.MI.Fwd_GETX |           1    100.00%    100.00% |           0      0.00%    100.00% |           0      0.00%    100.00% |           0      0.00%    100.00%
system.ruby.L1Cache_Controller.MI.Fwd_GETX::total            1                      
system.ruby.L1Cache_Controller.MI.Writeback_Ack_Data |       11341      0.16%      0.16% |     3203348     45.43%     45.59% |     3803335     53.93%     99.52% |       33714      0.48%    100.00%
system.ruby.L1Cache_Controller.MI.Writeback_Ack_Data::total      7051738                      
system.ruby.L1Cache_Controller.II.Writeback_Ack_Data |           1    100.00%    100.00% |           0      0.00%    100.00% |           0      0.00%    100.00% |           0      0.00%    100.00%
system.ruby.L1Cache_Controller.II.Writeback_Ack_Data::total            1                      
system.ruby.L2Cache_Controller.L1_GETS        9531856      0.00%      0.00%
system.ruby.L2Cache_Controller.L1_GETX        4506179      0.00%      0.00%
system.ruby.L2Cache_Controller.L1_PUTO           1034      0.00%      0.00%
system.ruby.L2Cache_Controller.L1_PUTX        7051742      0.00%      0.00%
system.ruby.L2Cache_Controller.L1_PUTS_only      6003981      0.00%      0.00%
system.ruby.L2Cache_Controller.L1_PUTS         139898      0.00%      0.00%
system.ruby.L2Cache_Controller.Fwd_GETX           975      0.00%      0.00%
system.ruby.L2Cache_Controller.Fwd_DMA            610      0.00%      0.00%
system.ruby.L2Cache_Controller.Inv                 68      0.00%      0.00%
system.ruby.L2Cache_Controller.All_Acks       3337760      0.00%      0.00%
system.ruby.L2Cache_Controller.Data           6458719      0.00%      0.00%
system.ruby.L2Cache_Controller.Data_Exclusive           67      0.00%      0.00%
system.ruby.L2Cache_Controller.L1_WBCLEANDATA      2355771      0.00%      0.00%
system.ruby.L2Cache_Controller.L1_WBDIRTYDATA      7052771      0.00%      0.00%
system.ruby.L2Cache_Controller.Writeback_Ack      3323037      0.00%      0.00%
system.ruby.L2Cache_Controller.Unblock       10753809      0.00%      0.00%
system.ruby.L2Cache_Controller.Exclusive_Unblock      7072057      0.00%      0.00%
system.ruby.L2Cache_Controller.DmaAck             413      0.00%      0.00%
system.ruby.L2Cache_Controller.L2_Replacement      5548351      0.00%      0.00%
system.ruby.L2Cache_Controller.NP.L1_GETS      3120959      0.00%      0.00%
system.ruby.L2Cache_Controller.NP.L1_GETX      2459029      0.00%      0.00%
system.ruby.L2Cache_Controller.NP.Inv              53      0.00%      0.00%
system.ruby.L2Cache_Controller.ILS.L1_GETS         6247      0.00%      0.00%
system.ruby.L2Cache_Controller.ILS.L1_GETX       773462      0.00%      0.00%
system.ruby.L2Cache_Controller.ILS.L1_PUTS_only      2348253      0.00%      0.00%
system.ruby.L2Cache_Controller.ILS.L1_PUTS         7518      0.00%      0.00%
system.ruby.L2Cache_Controller.ILX.L1_GETS        16109      0.00%      0.00%
system.ruby.L2Cache_Controller.ILX.L1_GETX         4175      0.00%      0.00%
system.ruby.L2Cache_Controller.ILX.L1_PUTX      7051739      0.00%      0.00%
system.ruby.L2Cache_Controller.ILX.Fwd_GETX           67      0.00%      0.00%
system.ruby.L2Cache_Controller.ILX.Fwd_DMA          413      0.00%      0.00%
system.ruby.L2Cache_Controller.ILOX.L1_GETS        11694      0.00%      0.00%
system.ruby.L2Cache_Controller.ILOX.L1_GETX          180      0.00%      0.00%
system.ruby.L2Cache_Controller.ILOX.L1_PUTO          640      0.00%      0.00%
system.ruby.L2Cache_Controller.ILOSX.L1_GETS        20272      0.00%      0.00%
system.ruby.L2Cache_Controller.ILOSX.L1_GETX         5366      0.00%      0.00%
system.ruby.L2Cache_Controller.ILOSX.L1_PUTO          393      0.00%      0.00%
system.ruby.L2Cache_Controller.ILOSX.L1_PUTS_only        12527      0.00%      0.00%
system.ruby.L2Cache_Controller.ILOSX.L1_PUTS        18837      0.00%      0.00%
system.ruby.L2Cache_Controller.S.L1_GETS      3684498      0.00%      0.00%
system.ruby.L2Cache_Controller.S.L1_GETX        64917      0.00%      0.00%
system.ruby.L2Cache_Controller.S.Inv               15      0.00%      0.00%
system.ruby.L2Cache_Controller.S.L2_Replacement      2217115      0.00%      0.00%
system.ruby.L2Cache_Controller.OLSX.L1_GETS         1208      0.00%      0.00%
system.ruby.L2Cache_Controller.OLSX.L1_GETX          115      0.00%      0.00%
system.ruby.L2Cache_Controller.OLSX.L1_PUTS_only          226      0.00%      0.00%
system.ruby.L2Cache_Controller.OLSX.L1_PUTS         1115      0.00%      0.00%
system.ruby.L2Cache_Controller.OLSX.L2_Replacement           84      0.00%      0.00%
system.ruby.L2Cache_Controller.SLS.L1_GETS       114321      0.00%      0.00%
system.ruby.L2Cache_Controller.SLS.L1_GETX        40352      0.00%      0.00%
system.ruby.L2Cache_Controller.SLS.L1_PUTS_only      3642975      0.00%      0.00%
system.ruby.L2Cache_Controller.SLS.L1_PUTS       112416      0.00%      0.00%
system.ruby.L2Cache_Controller.SLS.L2_Replacement         8199      0.00%      0.00%
system.ruby.L2Cache_Controller.M.L1_GETS      2556289      0.00%      0.00%
system.ruby.L2Cache_Controller.M.L1_GETX      1158576      0.00%      0.00%
system.ruby.L2Cache_Controller.M.Fwd_GETX          908      0.00%      0.00%
system.ruby.L2Cache_Controller.M.Fwd_DMA          197      0.00%      0.00%
system.ruby.L2Cache_Controller.M.L2_Replacement      3322953      0.00%      0.00%
system.ruby.L2Cache_Controller.IFGX.Data_Exclusive           67      0.00%      0.00%
system.ruby.L2Cache_Controller.ILOXW.L1_WBDIRTYDATA          640      0.00%      0.00%
system.ruby.L2Cache_Controller.ILOXW.Unblock        12527      0.00%      0.00%
system.ruby.L2Cache_Controller.ILOSXW.L1_PUTO            1      0.00%      0.00%
system.ruby.L2Cache_Controller.ILOSXW.L1_WBDIRTYDATA          393      0.00%      0.00%
system.ruby.L2Cache_Controller.ILOSXW.Unblock        18837      0.00%      0.00%
system.ruby.L2Cache_Controller.SLSW.L1_GETS            3      0.00%      0.00%
system.ruby.L2Cache_Controller.SLSW.L1_PUTS            4      0.00%      0.00%
system.ruby.L2Cache_Controller.SLSW.Unblock       112416      0.00%      0.00%
system.ruby.L2Cache_Controller.ILSW.L1_PUTS            6      0.00%      0.00%
system.ruby.L2Cache_Controller.ILSW.L1_WBCLEANDATA         7518      0.00%      0.00%
system.ruby.L2Cache_Controller.IW.L1_WBCLEANDATA      2348253      0.00%      0.00%
system.ruby.L2Cache_Controller.SW.L1_GETS            5      0.00%      0.00%
system.ruby.L2Cache_Controller.SW.Unblock      3642975      0.00%      0.00%
system.ruby.L2Cache_Controller.OXW.Unblock          226      0.00%      0.00%
system.ruby.L2Cache_Controller.OLSXW.Unblock         1115      0.00%      0.00%
system.ruby.L2Cache_Controller.ILXW.L1_WBDIRTYDATA      7051738      0.00%      0.00%
system.ruby.L2Cache_Controller.ILXW.Unblock            1      0.00%      0.00%
system.ruby.L2Cache_Controller.IFLS.Unblock         6247      0.00%      0.00%
system.ruby.L2Cache_Controller.IFLOX.Unblock        11694      0.00%      0.00%
system.ruby.L2Cache_Controller.IFLOX.Exclusive_Unblock          115      0.00%      0.00%
system.ruby.L2Cache_Controller.IFLOXX.L1_GETS           84      0.00%      0.00%
system.ruby.L2Cache_Controller.IFLOXX.L1_GETX            5      0.00%      0.00%
system.ruby.L2Cache_Controller.IFLOXX.L1_PUTX            3      0.00%      0.00%
system.ruby.L2Cache_Controller.IFLOXX.Unblock         6513      0.00%      0.00%
system.ruby.L2Cache_Controller.IFLOXX.Exclusive_Unblock        13951      0.00%      0.00%
system.ruby.L2Cache_Controller.IFLOSX.Unblock        20272      0.00%      0.00%
system.ruby.L2Cache_Controller.IFLXO.L1_GETS           55      0.00%      0.00%
system.ruby.L2Cache_Controller.IFLXO.L1_GETX            2      0.00%      0.00%
system.ruby.L2Cache_Controller.IFLXO.Exclusive_Unblock         5366      0.00%      0.00%
system.ruby.L2Cache_Controller.IGS.L1_GETS          100      0.00%      0.00%
system.ruby.L2Cache_Controller.IGS.Data       3120959      0.00%      0.00%
system.ruby.L2Cache_Controller.IGS.Unblock      3120959      0.00%      0.00%
system.ruby.L2Cache_Controller.IGM.Data       2523946      0.00%      0.00%
system.ruby.L2Cache_Controller.IGMLS.Data       813814      0.00%      0.00%
system.ruby.L2Cache_Controller.IGMO.All_Acks      3337760      0.00%      0.00%
system.ruby.L2Cache_Controller.IGMO.Exclusive_Unblock      3337760      0.00%      0.00%
system.ruby.L2Cache_Controller.MM.Exclusive_Unblock      1158576      0.00%      0.00%
system.ruby.L2Cache_Controller.SS.L1_GETS            2      0.00%      0.00%
system.ruby.L2Cache_Controller.SS.Unblock      3684498      0.00%      0.00%
system.ruby.L2Cache_Controller.OO.Exclusive_Unblock      2556289      0.00%      0.00%
system.ruby.L2Cache_Controller.OLSXS.Unblock         1208      0.00%      0.00%
system.ruby.L2Cache_Controller.SLSS.L1_GETS           10      0.00%      0.00%
system.ruby.L2Cache_Controller.SLSS.L1_PUTS            2      0.00%      0.00%
system.ruby.L2Cache_Controller.SLSS.Unblock       114321      0.00%      0.00%
system.ruby.L2Cache_Controller.MI.Writeback_Ack      3322953      0.00%      0.00%
system.ruby.L2Cache_Controller.OLSI.Writeback_Ack           84      0.00%      0.00%
system.ruby.L2Cache_Controller.ILXD.DmaAck          413      0.00%      0.00%

---------- End Simulation Statistics   ----------
