
---------- Begin Simulation Statistics ----------
sim_seconds                                  3.606762                       # Number of seconds simulated
sim_ticks                                3606762243500                       # Number of ticks simulated
final_tick                               56047609982001                       # Number of ticks from beginning of simulation (restored from checkpoints and never reset)
sim_freq                                 1000000000000                       # Frequency of simulated ticks
host_inst_rate                                 136750                       # Simulator instruction rate (inst/s)
host_op_rate                                   232897                       # Simulator op (including micro ops) rate (op/s)
host_tick_rate                              244058081                       # Simulator tick rate (ticks/s)
host_mem_usage                                1873888                       # Number of bytes of host memory used
host_seconds                                 14778.29                       # Real time elapsed on the host
sim_insts                                  2020932629                       # Number of instructions simulated
sim_ops                                    3441823501                       # Number of ops (including micro ops) simulated
system.voltage_domain.voltage                       1                       # Voltage in Volts
system.clk_domain.clock                          1000                       # Clock period in ticks
system.mem_ctrls.bytes_read::ruby.dir_cntrl0      1290624                       # Number of bytes read from this memory
system.mem_ctrls.bytes_read::total            1290624                       # Number of bytes read from this memory
system.mem_ctrls.bytes_written::ruby.dir_cntrl0       426880                       # Number of bytes written to this memory
system.mem_ctrls.bytes_written::total          426880                       # Number of bytes written to this memory
system.mem_ctrls.num_reads::ruby.dir_cntrl0        20166                       # Number of read requests responded to by this memory
system.mem_ctrls.num_reads::total               20166                       # Number of read requests responded to by this memory
system.mem_ctrls.num_writes::ruby.dir_cntrl0         6670                       # Number of write requests responded to by this memory
system.mem_ctrls.num_writes::total               6670                       # Number of write requests responded to by this memory
system.mem_ctrls.bw_read::ruby.dir_cntrl0       357835                       # Total read bandwidth from this memory (bytes/s)
system.mem_ctrls.bw_read::total                357835                       # Total read bandwidth from this memory (bytes/s)
system.mem_ctrls.bw_write::ruby.dir_cntrl0       118355                       # Write bandwidth from this memory (bytes/s)
system.mem_ctrls.bw_write::total               118355                       # Write bandwidth from this memory (bytes/s)
system.mem_ctrls.bw_total::ruby.dir_cntrl0       476190                       # Total bandwidth to/from this memory (bytes/s)
system.mem_ctrls.bw_total::total               476190                       # Total bandwidth to/from this memory (bytes/s)
system.mem_ctrls.readReqs                       20166                       # Number of read requests accepted
system.mem_ctrls.writeReqs                       6670                       # Number of write requests accepted
system.mem_ctrls.readBursts                     20166                       # Number of DRAM read bursts, including those serviced by the write queue
system.mem_ctrls.writeBursts                     6670                       # Number of DRAM write bursts, including those merged in the write queue
system.mem_ctrls.bytesReadDRAM                1288192                       # Total number of bytes read from DRAM
system.mem_ctrls.bytesReadWrQ                    2432                       # Total number of bytes read from write queue
system.mem_ctrls.bytesWritten                  426112                       # Total number of bytes written to DRAM
system.mem_ctrls.bytesReadSys                 1290624                       # Total read bytes from the system interface side
system.mem_ctrls.bytesWrittenSys               426880                       # Total written bytes from the system interface side
system.mem_ctrls.servicedByWrQ                     38                       # Number of DRAM read bursts serviced by the write queue
system.mem_ctrls.mergedWrBursts                     0                       # Number of DRAM write bursts merged with an existing one
system.mem_ctrls.neitherReadNorWriteReqs            0                       # Number of requests that are neither read nor write
system.mem_ctrls.perBankRdBursts::0              1595                       # Per bank write bursts
system.mem_ctrls.perBankRdBursts::1              1145                       # Per bank write bursts
system.mem_ctrls.perBankRdBursts::2              1000                       # Per bank write bursts
system.mem_ctrls.perBankRdBursts::3              1016                       # Per bank write bursts
system.mem_ctrls.perBankRdBursts::4              1163                       # Per bank write bursts
system.mem_ctrls.perBankRdBursts::5              1350                       # Per bank write bursts
system.mem_ctrls.perBankRdBursts::6              1549                       # Per bank write bursts
system.mem_ctrls.perBankRdBursts::7              1860                       # Per bank write bursts
system.mem_ctrls.perBankRdBursts::8              1019                       # Per bank write bursts
system.mem_ctrls.perBankRdBursts::9               915                       # Per bank write bursts
system.mem_ctrls.perBankRdBursts::10             1189                       # Per bank write bursts
system.mem_ctrls.perBankRdBursts::11             1044                       # Per bank write bursts
system.mem_ctrls.perBankRdBursts::12             1080                       # Per bank write bursts
system.mem_ctrls.perBankRdBursts::13             1308                       # Per bank write bursts
system.mem_ctrls.perBankRdBursts::14             1601                       # Per bank write bursts
system.mem_ctrls.perBankRdBursts::15             1294                       # Per bank write bursts
system.mem_ctrls.perBankWrBursts::0               623                       # Per bank write bursts
system.mem_ctrls.perBankWrBursts::1               492                       # Per bank write bursts
system.mem_ctrls.perBankWrBursts::2               488                       # Per bank write bursts
system.mem_ctrls.perBankWrBursts::3               434                       # Per bank write bursts
system.mem_ctrls.perBankWrBursts::4               573                       # Per bank write bursts
system.mem_ctrls.perBankWrBursts::5               431                       # Per bank write bursts
system.mem_ctrls.perBankWrBursts::6               502                       # Per bank write bursts
system.mem_ctrls.perBankWrBursts::7               559                       # Per bank write bursts
system.mem_ctrls.perBankWrBursts::8               188                       # Per bank write bursts
system.mem_ctrls.perBankWrBursts::9               121                       # Per bank write bursts
system.mem_ctrls.perBankWrBursts::10              266                       # Per bank write bursts
system.mem_ctrls.perBankWrBursts::11              117                       # Per bank write bursts
system.mem_ctrls.perBankWrBursts::12              283                       # Per bank write bursts
system.mem_ctrls.perBankWrBursts::13              452                       # Per bank write bursts
system.mem_ctrls.perBankWrBursts::14              775                       # Per bank write bursts
system.mem_ctrls.perBankWrBursts::15              354                       # Per bank write bursts
system.mem_ctrls.numRdRetry                         0                       # Number of times read queue was full causing retry
system.mem_ctrls.numWrRetry                         0                       # Number of times write queue was full causing retry
system.mem_ctrls.totGap                  3606762186500                       # Total gap between requests
system.mem_ctrls.readPktSize::0                     0                       # Read request sizes (log2)
system.mem_ctrls.readPktSize::1                     0                       # Read request sizes (log2)
system.mem_ctrls.readPktSize::2                     0                       # Read request sizes (log2)
system.mem_ctrls.readPktSize::3                     0                       # Read request sizes (log2)
system.mem_ctrls.readPktSize::4                     0                       # Read request sizes (log2)
system.mem_ctrls.readPktSize::5                     0                       # Read request sizes (log2)
system.mem_ctrls.readPktSize::6                 20166                       # Read request sizes (log2)
system.mem_ctrls.writePktSize::0                    0                       # Write request sizes (log2)
system.mem_ctrls.writePktSize::1                    0                       # Write request sizes (log2)
system.mem_ctrls.writePktSize::2                    0                       # Write request sizes (log2)
system.mem_ctrls.writePktSize::3                    0                       # Write request sizes (log2)
system.mem_ctrls.writePktSize::4                    0                       # Write request sizes (log2)
system.mem_ctrls.writePktSize::5                    0                       # Write request sizes (log2)
system.mem_ctrls.writePktSize::6                 6670                       # Write request sizes (log2)
system.mem_ctrls.rdQLenPdf::0                   19913                       # What read queue length does an incoming req see
system.mem_ctrls.rdQLenPdf::1                     208                       # What read queue length does an incoming req see
system.mem_ctrls.rdQLenPdf::2                       7                       # What read queue length does an incoming req see
system.mem_ctrls.rdQLenPdf::3                       0                       # What read queue length does an incoming req see
system.mem_ctrls.rdQLenPdf::4                       0                       # What read queue length does an incoming req see
system.mem_ctrls.rdQLenPdf::5                       0                       # What read queue length does an incoming req see
system.mem_ctrls.rdQLenPdf::6                       0                       # What read queue length does an incoming req see
system.mem_ctrls.rdQLenPdf::7                       0                       # What read queue length does an incoming req see
system.mem_ctrls.rdQLenPdf::8                       0                       # What read queue length does an incoming req see
system.mem_ctrls.rdQLenPdf::9                       0                       # What read queue length does an incoming req see
system.mem_ctrls.rdQLenPdf::10                      0                       # What read queue length does an incoming req see
system.mem_ctrls.rdQLenPdf::11                      0                       # What read queue length does an incoming req see
system.mem_ctrls.rdQLenPdf::12                      0                       # What read queue length does an incoming req see
system.mem_ctrls.rdQLenPdf::13                      0                       # What read queue length does an incoming req see
system.mem_ctrls.rdQLenPdf::14                      0                       # What read queue length does an incoming req see
system.mem_ctrls.rdQLenPdf::15                      0                       # What read queue length does an incoming req see
system.mem_ctrls.rdQLenPdf::16                      0                       # What read queue length does an incoming req see
system.mem_ctrls.rdQLenPdf::17                      0                       # What read queue length does an incoming req see
system.mem_ctrls.rdQLenPdf::18                      0                       # What read queue length does an incoming req see
system.mem_ctrls.rdQLenPdf::19                      0                       # What read queue length does an incoming req see
system.mem_ctrls.rdQLenPdf::20                      0                       # What read queue length does an incoming req see
system.mem_ctrls.rdQLenPdf::21                      0                       # What read queue length does an incoming req see
system.mem_ctrls.rdQLenPdf::22                      0                       # What read queue length does an incoming req see
system.mem_ctrls.rdQLenPdf::23                      0                       # What read queue length does an incoming req see
system.mem_ctrls.rdQLenPdf::24                      0                       # What read queue length does an incoming req see
system.mem_ctrls.rdQLenPdf::25                      0                       # What read queue length does an incoming req see
system.mem_ctrls.rdQLenPdf::26                      0                       # What read queue length does an incoming req see
system.mem_ctrls.rdQLenPdf::27                      0                       # What read queue length does an incoming req see
system.mem_ctrls.rdQLenPdf::28                      0                       # What read queue length does an incoming req see
system.mem_ctrls.rdQLenPdf::29                      0                       # What read queue length does an incoming req see
system.mem_ctrls.rdQLenPdf::30                      0                       # What read queue length does an incoming req see
system.mem_ctrls.rdQLenPdf::31                      0                       # What read queue length does an incoming req see
system.mem_ctrls.wrQLenPdf::0                       0                       # What write queue length does an incoming req see
system.mem_ctrls.wrQLenPdf::1                       0                       # What write queue length does an incoming req see
system.mem_ctrls.wrQLenPdf::2                       0                       # What write queue length does an incoming req see
system.mem_ctrls.wrQLenPdf::3                       0                       # What write queue length does an incoming req see
system.mem_ctrls.wrQLenPdf::4                       0                       # What write queue length does an incoming req see
system.mem_ctrls.wrQLenPdf::5                       0                       # What write queue length does an incoming req see
system.mem_ctrls.wrQLenPdf::6                       0                       # What write queue length does an incoming req see
system.mem_ctrls.wrQLenPdf::7                       0                       # What write queue length does an incoming req see
system.mem_ctrls.wrQLenPdf::8                       0                       # What write queue length does an incoming req see
system.mem_ctrls.wrQLenPdf::9                       0                       # What write queue length does an incoming req see
system.mem_ctrls.wrQLenPdf::10                      0                       # What write queue length does an incoming req see
system.mem_ctrls.wrQLenPdf::11                      0                       # What write queue length does an incoming req see
system.mem_ctrls.wrQLenPdf::12                      0                       # What write queue length does an incoming req see
system.mem_ctrls.wrQLenPdf::13                      0                       # What write queue length does an incoming req see
system.mem_ctrls.wrQLenPdf::14                      0                       # What write queue length does an incoming req see
system.mem_ctrls.wrQLenPdf::15                    111                       # What write queue length does an incoming req see
system.mem_ctrls.wrQLenPdf::16                    153                       # What write queue length does an incoming req see
system.mem_ctrls.wrQLenPdf::17                    378                       # What write queue length does an incoming req see
system.mem_ctrls.wrQLenPdf::18                    405                       # What write queue length does an incoming req see
system.mem_ctrls.wrQLenPdf::19                    389                       # What write queue length does an incoming req see
system.mem_ctrls.wrQLenPdf::20                    423                       # What write queue length does an incoming req see
system.mem_ctrls.wrQLenPdf::21                    436                       # What write queue length does an incoming req see
system.mem_ctrls.wrQLenPdf::22                    392                       # What write queue length does an incoming req see
system.mem_ctrls.wrQLenPdf::23                    431                       # What write queue length does an incoming req see
system.mem_ctrls.wrQLenPdf::24                    436                       # What write queue length does an incoming req see
system.mem_ctrls.wrQLenPdf::25                    387                       # What write queue length does an incoming req see
system.mem_ctrls.wrQLenPdf::26                    394                       # What write queue length does an incoming req see
system.mem_ctrls.wrQLenPdf::27                    383                       # What write queue length does an incoming req see
system.mem_ctrls.wrQLenPdf::28                    407                       # What write queue length does an incoming req see
system.mem_ctrls.wrQLenPdf::29                    373                       # What write queue length does an incoming req see
system.mem_ctrls.wrQLenPdf::30                    372                       # What write queue length does an incoming req see
system.mem_ctrls.wrQLenPdf::31                    376                       # What write queue length does an incoming req see
system.mem_ctrls.wrQLenPdf::32                    363                       # What write queue length does an incoming req see
system.mem_ctrls.wrQLenPdf::33                      8                       # What write queue length does an incoming req see
system.mem_ctrls.wrQLenPdf::34                     10                       # What write queue length does an incoming req see
system.mem_ctrls.wrQLenPdf::35                      9                       # What write queue length does an incoming req see
system.mem_ctrls.wrQLenPdf::36                      8                       # What write queue length does an incoming req see
system.mem_ctrls.wrQLenPdf::37                      5                       # What write queue length does an incoming req see
system.mem_ctrls.wrQLenPdf::38                      5                       # What write queue length does an incoming req see
system.mem_ctrls.wrQLenPdf::39                      3                       # What write queue length does an incoming req see
system.mem_ctrls.wrQLenPdf::40                      5                       # What write queue length does an incoming req see
system.mem_ctrls.wrQLenPdf::41                      3                       # What write queue length does an incoming req see
system.mem_ctrls.wrQLenPdf::42                      3                       # What write queue length does an incoming req see
system.mem_ctrls.wrQLenPdf::43                      2                       # What write queue length does an incoming req see
system.mem_ctrls.wrQLenPdf::44                      0                       # What write queue length does an incoming req see
system.mem_ctrls.wrQLenPdf::45                      0                       # What write queue length does an incoming req see
system.mem_ctrls.wrQLenPdf::46                      0                       # What write queue length does an incoming req see
system.mem_ctrls.wrQLenPdf::47                      0                       # What write queue length does an incoming req see
system.mem_ctrls.wrQLenPdf::48                      0                       # What write queue length does an incoming req see
system.mem_ctrls.wrQLenPdf::49                      0                       # What write queue length does an incoming req see
system.mem_ctrls.wrQLenPdf::50                      0                       # What write queue length does an incoming req see
system.mem_ctrls.wrQLenPdf::51                      0                       # What write queue length does an incoming req see
system.mem_ctrls.wrQLenPdf::52                      0                       # What write queue length does an incoming req see
system.mem_ctrls.wrQLenPdf::53                      0                       # What write queue length does an incoming req see
system.mem_ctrls.wrQLenPdf::54                      0                       # What write queue length does an incoming req see
system.mem_ctrls.wrQLenPdf::55                      0                       # What write queue length does an incoming req see
system.mem_ctrls.wrQLenPdf::56                      0                       # What write queue length does an incoming req see
system.mem_ctrls.wrQLenPdf::57                      0                       # What write queue length does an incoming req see
system.mem_ctrls.wrQLenPdf::58                      0                       # What write queue length does an incoming req see
system.mem_ctrls.wrQLenPdf::59                      0                       # What write queue length does an incoming req see
system.mem_ctrls.wrQLenPdf::60                      0                       # What write queue length does an incoming req see
system.mem_ctrls.wrQLenPdf::61                      0                       # What write queue length does an incoming req see
system.mem_ctrls.wrQLenPdf::62                      0                       # What write queue length does an incoming req see
system.mem_ctrls.wrQLenPdf::63                      0                       # What write queue length does an incoming req see
system.mem_ctrls.bytesPerActivate::samples         7338                       # Bytes accessed per row activation
system.mem_ctrls.bytesPerActivate::mean    233.620060                       # Bytes accessed per row activation
system.mem_ctrls.bytesPerActivate::gmean   133.964449                       # Bytes accessed per row activation
system.mem_ctrls.bytesPerActivate::stdev   298.680824                       # Bytes accessed per row activation
system.mem_ctrls.bytesPerActivate::0-127         3801     51.80%     51.80% # Bytes accessed per row activation
system.mem_ctrls.bytesPerActivate::128-255         1723     23.48%     75.28% # Bytes accessed per row activation
system.mem_ctrls.bytesPerActivate::256-383          473      6.45%     81.73% # Bytes accessed per row activation
system.mem_ctrls.bytesPerActivate::384-511          238      3.24%     84.97% # Bytes accessed per row activation
system.mem_ctrls.bytesPerActivate::512-639          159      2.17%     87.14% # Bytes accessed per row activation
system.mem_ctrls.bytesPerActivate::640-767          110      1.50%     88.63% # Bytes accessed per row activation
system.mem_ctrls.bytesPerActivate::768-895           86      1.17%     89.81% # Bytes accessed per row activation
system.mem_ctrls.bytesPerActivate::896-1023           62      0.84%     90.65% # Bytes accessed per row activation
system.mem_ctrls.bytesPerActivate::1024-1151          686      9.35%    100.00% # Bytes accessed per row activation
system.mem_ctrls.bytesPerActivate::total         7338                       # Bytes accessed per row activation
system.mem_ctrls.rdPerTurnAround::samples          359                       # Reads before turning the bus around for writes
system.mem_ctrls.rdPerTurnAround::mean      99.724234                       # Reads before turning the bus around for writes
system.mem_ctrls.rdPerTurnAround::stdev    850.111560                       # Reads before turning the bus around for writes
system.mem_ctrls.rdPerTurnAround::0-511           354     98.61%     98.61% # Reads before turning the bus around for writes
system.mem_ctrls.rdPerTurnAround::512-1023            4      1.11%     99.72% # Reads before turning the bus around for writes
system.mem_ctrls.rdPerTurnAround::15872-16383            1      0.28%    100.00% # Reads before turning the bus around for writes
system.mem_ctrls.rdPerTurnAround::total           359                       # Reads before turning the bus around for writes
system.mem_ctrls.wrPerTurnAround::samples          359                       # Writes before turning the bus around for reads
system.mem_ctrls.wrPerTurnAround::mean      18.545961                       # Writes before turning the bus around for reads
system.mem_ctrls.wrPerTurnAround::gmean     18.128885                       # Writes before turning the bus around for reads
system.mem_ctrls.wrPerTurnAround::stdev      4.458058                       # Writes before turning the bus around for reads
system.mem_ctrls.wrPerTurnAround::16              234     65.18%     65.18% # Writes before turning the bus around for reads
system.mem_ctrls.wrPerTurnAround::17                5      1.39%     66.57% # Writes before turning the bus around for reads
system.mem_ctrls.wrPerTurnAround::18               17      4.74%     71.31% # Writes before turning the bus around for reads
system.mem_ctrls.wrPerTurnAround::20                4      1.11%     72.42% # Writes before turning the bus around for reads
system.mem_ctrls.wrPerTurnAround::21               27      7.52%     79.94% # Writes before turning the bus around for reads
system.mem_ctrls.wrPerTurnAround::22                9      2.51%     82.45% # Writes before turning the bus around for reads
system.mem_ctrls.wrPerTurnAround::23                2      0.56%     83.01% # Writes before turning the bus around for reads
system.mem_ctrls.wrPerTurnAround::24               29      8.08%     91.09% # Writes before turning the bus around for reads
system.mem_ctrls.wrPerTurnAround::25                4      1.11%     92.20% # Writes before turning the bus around for reads
system.mem_ctrls.wrPerTurnAround::26                1      0.28%     92.48% # Writes before turning the bus around for reads
system.mem_ctrls.wrPerTurnAround::27                1      0.28%     92.76% # Writes before turning the bus around for reads
system.mem_ctrls.wrPerTurnAround::28               21      5.85%     98.61% # Writes before turning the bus around for reads
system.mem_ctrls.wrPerTurnAround::32                1      0.28%     98.89% # Writes before turning the bus around for reads
system.mem_ctrls.wrPerTurnAround::35                1      0.28%     99.16% # Writes before turning the bus around for reads
system.mem_ctrls.wrPerTurnAround::38                1      0.28%     99.44% # Writes before turning the bus around for reads
system.mem_ctrls.wrPerTurnAround::45                2      0.56%    100.00% # Writes before turning the bus around for reads
system.mem_ctrls.wrPerTurnAround::total           359                       # Writes before turning the bus around for reads
system.mem_ctrls.totQLat                    194620250                       # Total ticks spent queuing
system.mem_ctrls.totMemAccLat               572020250                       # Total ticks spent from burst creation until serviced by the DRAM
system.mem_ctrls.totBusLat                  100640000                       # Total ticks spent in databus transfers
system.mem_ctrls.avgQLat                      9669.13                       # Average queueing delay per DRAM burst
system.mem_ctrls.avgBusLat                    5000.00                       # Average bus latency per DRAM burst
system.mem_ctrls.avgMemAccLat                28419.13                       # Average memory access latency per DRAM burst
system.mem_ctrls.avgRdBW                         0.36                       # Average DRAM read bandwidth in MiByte/s
system.mem_ctrls.avgWrBW                         0.12                       # Average achieved write bandwidth in MiByte/s
system.mem_ctrls.avgRdBWSys                      0.36                       # Average system read bandwidth in MiByte/s
system.mem_ctrls.avgWrBWSys                      0.12                       # Average system write bandwidth in MiByte/s
system.mem_ctrls.peakBW                      12800.00                       # Theoretical peak bandwidth in MiByte/s
system.mem_ctrls.busUtil                         0.00                       # Data bus utilization in percentage
system.mem_ctrls.busUtilRead                     0.00                       # Data bus utilization in percentage for reads
system.mem_ctrls.busUtilWrite                    0.00                       # Data bus utilization in percentage for writes
system.mem_ctrls.avgRdQLen                       1.00                       # Average read queue length when enqueuing
system.mem_ctrls.avgWrQLen                      25.13                       # Average write queue length when enqueuing
system.mem_ctrls.readRowHits                    14846                       # Number of row buffer hits during reads
system.mem_ctrls.writeRowHits                    4602                       # Number of row buffer hits during writes
system.mem_ctrls.readRowHitRate                 73.76                       # Row buffer hit rate for reads
system.mem_ctrls.writeRowHitRate                69.00                       # Row buffer hit rate for writes
system.mem_ctrls.avgGap                  134400141.10                       # Average gap between requests
system.mem_ctrls.pageHitRate                    72.57                       # Row buffer hit rate, read and write combined
system.mem_ctrls_0.actEnergy                 43742160                       # Energy for activate commands per rank (pJ)
system.mem_ctrls_0.preEnergy                 23867250                       # Energy for precharge commands per rank (pJ)
system.mem_ctrls_0.readEnergy               139908600                       # Energy for read commands per rank (pJ)
system.mem_ctrls_0.writeEnergy               26580960                       # Energy for write commands per rank (pJ)
system.mem_ctrls_0.refreshEnergy         235805540880                       # Energy for refresh commands per rank (pJ)
system.mem_ctrls_0.actBackEnergy          82127032695                       # Energy for active background per rank (pJ)
system.mem_ctrls_0.preBackEnergy         2094123237000                       # Energy for precharge background per rank (pJ)
system.mem_ctrls_0.totalEnergy           2412289909545                       # Total energy per rank (pJ)
system.mem_ctrls_0.averagePower            668.173608                       # Core power per rank (mW)
system.mem_ctrls_0.memoryStateTime::IDLE 3482438622750                       # Time in different power states
system.mem_ctrls_0.memoryStateTime::REF  120437720000                       # Time in different power states
system.mem_ctrls_0.memoryStateTime::PRE_PDN            0                       # Time in different power states
system.mem_ctrls_0.memoryStateTime::ACT    3886963250                       # Time in different power states
system.mem_ctrls_0.memoryStateTime::ACT_PDN            0                       # Time in different power states
system.mem_ctrls_1.actEnergy                 41481720                       # Energy for activate commands per rank (pJ)
system.mem_ctrls_1.preEnergy                 22633875                       # Energy for precharge commands per rank (pJ)
system.mem_ctrls_1.readEnergy               139456200                       # Energy for read commands per rank (pJ)
system.mem_ctrls_1.writeEnergy               16562880                       # Energy for write commands per rank (pJ)
system.mem_ctrls_1.refreshEnergy         235805540880                       # Energy for refresh commands per rank (pJ)
system.mem_ctrls_1.actBackEnergy          82271418255                       # Energy for active background per rank (pJ)
system.mem_ctrls_1.preBackEnergy         2093996574750                       # Energy for precharge background per rank (pJ)
system.mem_ctrls_1.totalEnergy           2412293668560                       # Total energy per rank (pJ)
system.mem_ctrls_1.averagePower            668.174652                       # Core power per rank (mW)
system.mem_ctrls_1.memoryStateTime::IDLE 3482233546250                       # Time in different power states
system.mem_ctrls_1.memoryStateTime::REF  120437720000                       # Time in different power states
system.mem_ctrls_1.memoryStateTime::PRE_PDN            0                       # Time in different power states
system.mem_ctrls_1.memoryStateTime::ACT    4091017500                       # Time in different power states
system.mem_ctrls_1.memoryStateTime::ACT_PDN            0                       # Time in different power states
system.cpu_voltage_domain.voltage                   1                       # Voltage in Volts
system.cpu_clk_domain.clock                       500                       # Clock period in ticks
system.cpu0.apic_clk_domain.clock                8000                       # Clock period in ticks
system.cpu0.numCycles                      7214912612                       # number of cpu cycles simulated
system.cpu0.numWorkItemsStarted                     0                       # number of work items this cpu started
system.cpu0.numWorkItemsCompleted                   0                       # number of work items this cpu completed
system.cpu0.kern.inst.arm                           0                       # number of arm instructions executed
system.cpu0.kern.inst.quiesce                       0                       # number of quiesce instructions executed
system.cpu0.committedInsts                 1994442264                       # Number of instructions committed
system.cpu0.committedOps                   3392921288                       # Number of ops (including micro ops) committed
system.cpu0.num_int_alu_accesses           2757565666                       # Number of integer alu accesses
system.cpu0.num_fp_alu_accesses            1010088632                       # Number of float alu accesses
system.cpu0.num_func_calls                   49946876                       # number of times a function call or return occured
system.cpu0.num_conditional_control_insts    199813083                       # number of instructions that are conditional controls
system.cpu0.num_int_insts                  2757565666                       # number of integer instructions
system.cpu0.num_fp_insts                   1010088632                       # number of float instructions
system.cpu0.num_int_register_reads         5218333149                       # number of times the integer registers were read
system.cpu0.num_int_register_writes        2052605871                       # number of times the integer registers were written
system.cpu0.num_fp_register_reads          1701898935                       # number of times the floating registers were read
system.cpu0.num_fp_register_writes          899765754                       # number of times the floating registers were written
system.cpu0.num_cc_register_reads          1288633178                       # number of times the CC registers were read
system.cpu0.num_cc_register_writes         1039374191                       # number of times the CC registers were written
system.cpu0.num_mem_refs                    738244770                       # number of memory refs
system.cpu0.num_load_insts                  571809122                       # Number of load instructions
system.cpu0.num_store_insts                 166435648                       # Number of store instructions
system.cpu0.num_idle_cycles              64321326.207520                       # Number of idle cycles
system.cpu0.num_busy_cycles              7150591285.792480                       # Number of busy cycles
system.cpu0.not_idle_fraction                0.991085                       # Percentage of non-idle cycles
system.cpu0.idle_fraction                    0.008915                       # Percentage of idle cycles
system.cpu0.Branches                        261172664                       # Number of branches fetched
system.cpu0.op_class::No_OpClass              1512130      0.04%      0.04% # Class of executed instruction
system.cpu0.op_class::IntAlu               2189291441     64.53%     64.57% # Class of executed instruction
system.cpu0.op_class::IntMult                24043355      0.71%     65.28% # Class of executed instruction
system.cpu0.op_class::IntDiv                   210292      0.01%     65.28% # Class of executed instruction
system.cpu0.op_class::FloatAdd              439619455     12.96%     78.24% # Class of executed instruction
system.cpu0.op_class::FloatCmp                      0      0.00%     78.24% # Class of executed instruction
system.cpu0.op_class::FloatCvt                      0      0.00%     78.24% # Class of executed instruction
system.cpu0.op_class::FloatMult                     0      0.00%     78.24% # Class of executed instruction
system.cpu0.op_class::FloatDiv                      0      0.00%     78.24% # Class of executed instruction
system.cpu0.op_class::FloatSqrt                     0      0.00%     78.24% # Class of executed instruction
system.cpu0.op_class::SimdAdd                       0      0.00%     78.24% # Class of executed instruction
system.cpu0.op_class::SimdAddAcc                    0      0.00%     78.24% # Class of executed instruction
system.cpu0.op_class::SimdAlu                       0      0.00%     78.24% # Class of executed instruction
system.cpu0.op_class::SimdCmp                       0      0.00%     78.24% # Class of executed instruction
system.cpu0.op_class::SimdCvt                       0      0.00%     78.24% # Class of executed instruction
system.cpu0.op_class::SimdMisc                      0      0.00%     78.24% # Class of executed instruction
system.cpu0.op_class::SimdMult                      0      0.00%     78.24% # Class of executed instruction
system.cpu0.op_class::SimdMultAcc                   0      0.00%     78.24% # Class of executed instruction
system.cpu0.op_class::SimdShift                     0      0.00%     78.24% # Class of executed instruction
system.cpu0.op_class::SimdShiftAcc                  0      0.00%     78.24% # Class of executed instruction
system.cpu0.op_class::SimdSqrt                      0      0.00%     78.24% # Class of executed instruction
system.cpu0.op_class::SimdFloatAdd                  0      0.00%     78.24% # Class of executed instruction
system.cpu0.op_class::SimdFloatAlu                  0      0.00%     78.24% # Class of executed instruction
system.cpu0.op_class::SimdFloatCmp                  0      0.00%     78.24% # Class of executed instruction
system.cpu0.op_class::SimdFloatCvt                  0      0.00%     78.24% # Class of executed instruction
system.cpu0.op_class::SimdFloatDiv                  0      0.00%     78.24% # Class of executed instruction
system.cpu0.op_class::SimdFloatMisc                 0      0.00%     78.24% # Class of executed instruction
system.cpu0.op_class::SimdFloatMult                 0      0.00%     78.24% # Class of executed instruction
system.cpu0.op_class::SimdFloatMultAcc              0      0.00%     78.24% # Class of executed instruction
system.cpu0.op_class::SimdFloatSqrt                 0      0.00%     78.24% # Class of executed instruction
system.cpu0.op_class::MemRead               571809122     16.85%     95.09% # Class of executed instruction
system.cpu0.op_class::MemWrite              166435648      4.91%    100.00% # Class of executed instruction
system.cpu0.op_class::IprAccess                     0      0.00%    100.00% # Class of executed instruction
system.cpu0.op_class::InstPrefetch                  0      0.00%    100.00% # Class of executed instruction
system.cpu0.op_class::total                3392921443                       # Class of executed instruction
system.cpu1.apic_clk_domain.clock                8000                       # Clock period in ticks
system.cpu1.numCycles                      7213578771                       # number of cpu cycles simulated
system.cpu1.numWorkItemsStarted                     0                       # number of work items this cpu started
system.cpu1.numWorkItemsCompleted                   0                       # number of work items this cpu completed
system.cpu1.kern.inst.arm                           0                       # number of arm instructions executed
system.cpu1.kern.inst.quiesce                       0                       # number of quiesce instructions executed
system.cpu1.committedInsts                    2718983                       # Number of instructions committed
system.cpu1.committedOps                      5824379                       # Number of ops (including micro ops) committed
system.cpu1.num_int_alu_accesses              5699545                       # Number of integer alu accesses
system.cpu1.num_fp_alu_accesses                    65                       # Number of float alu accesses
system.cpu1.num_func_calls                     158509                       # number of times a function call or return occured
system.cpu1.num_conditional_control_insts       418612                       # number of instructions that are conditional controls
system.cpu1.num_int_insts                     5699545                       # number of integer instructions
system.cpu1.num_fp_insts                           65                       # number of float instructions
system.cpu1.num_int_register_reads           11549591                       # number of times the integer registers were read
system.cpu1.num_int_register_writes           4724510                       # number of times the integer registers were written
system.cpu1.num_fp_register_reads                  82                       # number of times the floating registers were read
system.cpu1.num_fp_register_writes                 44                       # number of times the floating registers were written
system.cpu1.num_cc_register_reads             3321326                       # number of times the CC registers were read
system.cpu1.num_cc_register_writes            1745862                       # number of times the CC registers were written
system.cpu1.num_mem_refs                      1373586                       # number of memory refs
system.cpu1.num_load_insts                     853995                       # Number of load instructions
system.cpu1.num_store_insts                    519591                       # Number of store instructions
system.cpu1.num_idle_cycles              7202052321.260561                       # Number of idle cycles
system.cpu1.num_busy_cycles              11526449.739439                       # Number of busy cycles
system.cpu1.not_idle_fraction                0.001598                       # Percentage of non-idle cycles
system.cpu1.idle_fraction                    0.998402                       # Percentage of idle cycles
system.cpu1.Branches                           628562                       # Number of branches fetched
system.cpu1.op_class::No_OpClass               105570      1.81%      1.81% # Class of executed instruction
system.cpu1.op_class::IntAlu                  4295533     73.75%     75.56% # Class of executed instruction
system.cpu1.op_class::IntMult                   11634      0.20%     75.76% # Class of executed instruction
system.cpu1.op_class::IntDiv                    38054      0.65%     76.42% # Class of executed instruction
system.cpu1.op_class::FloatAdd                     22      0.00%     76.42% # Class of executed instruction
system.cpu1.op_class::FloatCmp                      0      0.00%     76.42% # Class of executed instruction
system.cpu1.op_class::FloatCvt                      0      0.00%     76.42% # Class of executed instruction
system.cpu1.op_class::FloatMult                     0      0.00%     76.42% # Class of executed instruction
system.cpu1.op_class::FloatDiv                      0      0.00%     76.42% # Class of executed instruction
system.cpu1.op_class::FloatSqrt                     0      0.00%     76.42% # Class of executed instruction
system.cpu1.op_class::SimdAdd                       0      0.00%     76.42% # Class of executed instruction
system.cpu1.op_class::SimdAddAcc                    0      0.00%     76.42% # Class of executed instruction
system.cpu1.op_class::SimdAlu                       0      0.00%     76.42% # Class of executed instruction
system.cpu1.op_class::SimdCmp                       0      0.00%     76.42% # Class of executed instruction
system.cpu1.op_class::SimdCvt                       0      0.00%     76.42% # Class of executed instruction
system.cpu1.op_class::SimdMisc                      0      0.00%     76.42% # Class of executed instruction
system.cpu1.op_class::SimdMult                      0      0.00%     76.42% # Class of executed instruction
system.cpu1.op_class::SimdMultAcc                   0      0.00%     76.42% # Class of executed instruction
system.cpu1.op_class::SimdShift                     0      0.00%     76.42% # Class of executed instruction
system.cpu1.op_class::SimdShiftAcc                  0      0.00%     76.42% # Class of executed instruction
system.cpu1.op_class::SimdSqrt                      0      0.00%     76.42% # Class of executed instruction
system.cpu1.op_class::SimdFloatAdd                  0      0.00%     76.42% # Class of executed instruction
system.cpu1.op_class::SimdFloatAlu                  0      0.00%     76.42% # Class of executed instruction
system.cpu1.op_class::SimdFloatCmp                  0      0.00%     76.42% # Class of executed instruction
system.cpu1.op_class::SimdFloatCvt                  0      0.00%     76.42% # Class of executed instruction
system.cpu1.op_class::SimdFloatDiv                  0      0.00%     76.42% # Class of executed instruction
system.cpu1.op_class::SimdFloatMisc                 0      0.00%     76.42% # Class of executed instruction
system.cpu1.op_class::SimdFloatMult                 0      0.00%     76.42% # Class of executed instruction
system.cpu1.op_class::SimdFloatMultAcc              0      0.00%     76.42% # Class of executed instruction
system.cpu1.op_class::SimdFloatSqrt                 0      0.00%     76.42% # Class of executed instruction
system.cpu1.op_class::MemRead                  853995     14.66%     91.08% # Class of executed instruction
system.cpu1.op_class::MemWrite                 519591      8.92%    100.00% # Class of executed instruction
system.cpu1.op_class::IprAccess                     0      0.00%    100.00% # Class of executed instruction
system.cpu1.op_class::InstPrefetch                  0      0.00%    100.00% # Class of executed instruction
system.cpu1.op_class::total                   5824399                       # Class of executed instruction
system.cpu2.apic_clk_domain.clock                8000                       # Clock period in ticks
system.cpu2.numCycles                      7214047967                       # number of cpu cycles simulated
system.cpu2.numWorkItemsStarted                     0                       # number of work items this cpu started
system.cpu2.numWorkItemsCompleted                   0                       # number of work items this cpu completed
system.cpu2.kern.inst.arm                           0                       # number of arm instructions executed
system.cpu2.kern.inst.quiesce                       0                       # number of quiesce instructions executed
system.cpu2.committedInsts                    3281632                       # Number of instructions committed
system.cpu2.committedOps                      6839277                       # Number of ops (including micro ops) committed
system.cpu2.num_int_alu_accesses              6702991                       # Number of integer alu accesses
system.cpu2.num_fp_alu_accesses                  1837                       # Number of float alu accesses
system.cpu2.num_func_calls                     174032                       # number of times a function call or return occured
system.cpu2.num_conditional_control_insts       507436                       # number of instructions that are conditional controls
system.cpu2.num_int_insts                     6702991                       # number of integer instructions
system.cpu2.num_fp_insts                         1837                       # number of float instructions
system.cpu2.num_int_register_reads           13603713                       # number of times the integer registers were read
system.cpu2.num_int_register_writes           5535164                       # number of times the integer registers were written
system.cpu2.num_fp_register_reads                3081                       # number of times the floating registers were read
system.cpu2.num_fp_register_writes               1457                       # number of times the floating registers were written
system.cpu2.num_cc_register_reads             3900816                       # number of times the CC registers were read
system.cpu2.num_cc_register_writes            2111413                       # number of times the CC registers were written
system.cpu2.num_mem_refs                      1599853                       # number of memory refs
system.cpu2.num_load_insts                     991206                       # Number of load instructions
system.cpu2.num_store_insts                    608647                       # Number of store instructions
system.cpu2.num_idle_cycles              7200127208.858451                       # Number of idle cycles
system.cpu2.num_busy_cycles              13920758.141549                       # Number of busy cycles
system.cpu2.not_idle_fraction                0.001930                       # Percentage of non-idle cycles
system.cpu2.idle_fraction                    0.998070                       # Percentage of idle cycles
system.cpu2.Branches                           740564                       # Number of branches fetched
system.cpu2.op_class::No_OpClass               111463      1.63%      1.63% # Class of executed instruction
system.cpu2.op_class::IntAlu                  5074770     74.20%     75.83% # Class of executed instruction
system.cpu2.op_class::IntMult                   12391      0.18%     76.01% # Class of executed instruction
system.cpu2.op_class::IntDiv                    39523      0.58%     76.59% # Class of executed instruction
system.cpu2.op_class::FloatAdd                   1366      0.02%     76.61% # Class of executed instruction
system.cpu2.op_class::FloatCmp                      0      0.00%     76.61% # Class of executed instruction
system.cpu2.op_class::FloatCvt                      0      0.00%     76.61% # Class of executed instruction
system.cpu2.op_class::FloatMult                     0      0.00%     76.61% # Class of executed instruction
system.cpu2.op_class::FloatDiv                      0      0.00%     76.61% # Class of executed instruction
system.cpu2.op_class::FloatSqrt                     0      0.00%     76.61% # Class of executed instruction
system.cpu2.op_class::SimdAdd                       0      0.00%     76.61% # Class of executed instruction
system.cpu2.op_class::SimdAddAcc                    0      0.00%     76.61% # Class of executed instruction
system.cpu2.op_class::SimdAlu                       0      0.00%     76.61% # Class of executed instruction
system.cpu2.op_class::SimdCmp                       0      0.00%     76.61% # Class of executed instruction
system.cpu2.op_class::SimdCvt                       0      0.00%     76.61% # Class of executed instruction
system.cpu2.op_class::SimdMisc                      0      0.00%     76.61% # Class of executed instruction
system.cpu2.op_class::SimdMult                      0      0.00%     76.61% # Class of executed instruction
system.cpu2.op_class::SimdMultAcc                   0      0.00%     76.61% # Class of executed instruction
system.cpu2.op_class::SimdShift                     0      0.00%     76.61% # Class of executed instruction
system.cpu2.op_class::SimdShiftAcc                  0      0.00%     76.61% # Class of executed instruction
system.cpu2.op_class::SimdSqrt                      0      0.00%     76.61% # Class of executed instruction
system.cpu2.op_class::SimdFloatAdd                  0      0.00%     76.61% # Class of executed instruction
system.cpu2.op_class::SimdFloatAlu                  0      0.00%     76.61% # Class of executed instruction
system.cpu2.op_class::SimdFloatCmp                  0      0.00%     76.61% # Class of executed instruction
system.cpu2.op_class::SimdFloatCvt                  0      0.00%     76.61% # Class of executed instruction
system.cpu2.op_class::SimdFloatDiv                  0      0.00%     76.61% # Class of executed instruction
system.cpu2.op_class::SimdFloatMisc                 0      0.00%     76.61% # Class of executed instruction
system.cpu2.op_class::SimdFloatMult                 0      0.00%     76.61% # Class of executed instruction
system.cpu2.op_class::SimdFloatMultAcc              0      0.00%     76.61% # Class of executed instruction
system.cpu2.op_class::SimdFloatSqrt                 0      0.00%     76.61% # Class of executed instruction
system.cpu2.op_class::MemRead                  991206     14.49%     91.10% # Class of executed instruction
system.cpu2.op_class::MemWrite                 608647      8.90%    100.00% # Class of executed instruction
system.cpu2.op_class::IprAccess                     0      0.00%    100.00% # Class of executed instruction
system.cpu2.op_class::InstPrefetch                  0      0.00%    100.00% # Class of executed instruction
system.cpu2.op_class::total                   6839366                       # Class of executed instruction
system.cpu3.apic_clk_domain.clock                8000                       # Clock period in ticks
system.cpu3.numCycles                      7211945092                       # number of cpu cycles simulated
system.cpu3.numWorkItemsStarted                     0                       # number of work items this cpu started
system.cpu3.numWorkItemsCompleted                   0                       # number of work items this cpu completed
system.cpu3.kern.inst.arm                           0                       # number of arm instructions executed
system.cpu3.kern.inst.quiesce                       0                       # number of quiesce instructions executed
system.cpu3.committedInsts                   19101981                       # Number of instructions committed
system.cpu3.committedOps                     33681410                       # Number of ops (including micro ops) committed
system.cpu3.num_int_alu_accesses             28294985                       # Number of integer alu accesses
system.cpu3.num_fp_alu_accesses               8399271                       # Number of float alu accesses
system.cpu3.num_func_calls                     574937                       # number of times a function call or return occured
system.cpu3.num_conditional_control_insts      2013005                       # number of instructions that are conditional controls
system.cpu3.num_int_insts                    28294985                       # number of integer instructions
system.cpu3.num_fp_insts                      8399271                       # number of float instructions
system.cpu3.num_int_register_reads           54556575                       # number of times the integer registers were read
system.cpu3.num_int_register_writes          21499720                       # number of times the integer registers were written
system.cpu3.num_fp_register_reads            14064247                       # number of times the floating registers were read
system.cpu3.num_fp_register_writes            7474237                       # number of times the floating registers were written
system.cpu3.num_cc_register_reads            13703769                       # number of times the CC registers were read
system.cpu3.num_cc_register_writes           10136961                       # number of times the CC registers were written
system.cpu3.num_mem_refs                      7543617                       # number of memory refs
system.cpu3.num_load_insts                    5634635                       # Number of load instructions
system.cpu3.num_store_insts                   1908982                       # Number of store instructions
system.cpu3.num_idle_cycles              7141045513.809440                       # Number of idle cycles
system.cpu3.num_busy_cycles              70899578.190560                       # Number of busy cycles
system.cpu3.not_idle_fraction                0.009831                       # Percentage of non-idle cycles
system.cpu3.idle_fraction                    0.990169                       # Percentage of idle cycles
system.cpu3.Branches                          2735984                       # Number of branches fetched
system.cpu3.op_class::No_OpClass               117848      0.35%      0.35% # Class of executed instruction
system.cpu3.op_class::IntAlu                 22149446     65.76%     66.11% # Class of executed instruction
system.cpu3.op_class::IntMult                  212577      0.63%     66.74% # Class of executed instruction
system.cpu3.op_class::IntDiv                    39769      0.12%     66.86% # Class of executed instruction
system.cpu3.op_class::FloatAdd                3618197     10.74%     77.60% # Class of executed instruction
system.cpu3.op_class::FloatCmp                      0      0.00%     77.60% # Class of executed instruction
system.cpu3.op_class::FloatCvt                      0      0.00%     77.60% # Class of executed instruction
system.cpu3.op_class::FloatMult                     0      0.00%     77.60% # Class of executed instruction
system.cpu3.op_class::FloatDiv                      0      0.00%     77.60% # Class of executed instruction
system.cpu3.op_class::FloatSqrt                     0      0.00%     77.60% # Class of executed instruction
system.cpu3.op_class::SimdAdd                       0      0.00%     77.60% # Class of executed instruction
system.cpu3.op_class::SimdAddAcc                    0      0.00%     77.60% # Class of executed instruction
system.cpu3.op_class::SimdAlu                       0      0.00%     77.60% # Class of executed instruction
system.cpu3.op_class::SimdCmp                       0      0.00%     77.60% # Class of executed instruction
system.cpu3.op_class::SimdCvt                       0      0.00%     77.60% # Class of executed instruction
system.cpu3.op_class::SimdMisc                      0      0.00%     77.60% # Class of executed instruction
system.cpu3.op_class::SimdMult                      0      0.00%     77.60% # Class of executed instruction
system.cpu3.op_class::SimdMultAcc                   0      0.00%     77.60% # Class of executed instruction
system.cpu3.op_class::SimdShift                     0      0.00%     77.60% # Class of executed instruction
system.cpu3.op_class::SimdShiftAcc                  0      0.00%     77.60% # Class of executed instruction
system.cpu3.op_class::SimdSqrt                      0      0.00%     77.60% # Class of executed instruction
system.cpu3.op_class::SimdFloatAdd                  0      0.00%     77.60% # Class of executed instruction
system.cpu3.op_class::SimdFloatAlu                  0      0.00%     77.60% # Class of executed instruction
system.cpu3.op_class::SimdFloatCmp                  0      0.00%     77.60% # Class of executed instruction
system.cpu3.op_class::SimdFloatCvt                  0      0.00%     77.60% # Class of executed instruction
system.cpu3.op_class::SimdFloatDiv                  0      0.00%     77.60% # Class of executed instruction
system.cpu3.op_class::SimdFloatMisc                 0      0.00%     77.60% # Class of executed instruction
system.cpu3.op_class::SimdFloatMult                 0      0.00%     77.60% # Class of executed instruction
system.cpu3.op_class::SimdFloatMultAcc              0      0.00%     77.60% # Class of executed instruction
system.cpu3.op_class::SimdFloatSqrt                 0      0.00%     77.60% # Class of executed instruction
system.cpu3.op_class::MemRead                 5634635     16.73%     94.33% # Class of executed instruction
system.cpu3.op_class::MemWrite                1908982      5.67%    100.00% # Class of executed instruction
system.cpu3.op_class::IprAccess                     0      0.00%    100.00% # Class of executed instruction
system.cpu3.op_class::InstPrefetch                  0      0.00%    100.00% # Class of executed instruction
system.cpu3.op_class::total                  33681454                       # Class of executed instruction
system.iobus.trans_dist::ReadReq                  111                       # Transaction distribution
system.iobus.trans_dist::ReadResp                 111                       # Transaction distribution
system.iobus.trans_dist::WriteReq                3731                       # Transaction distribution
system.iobus.trans_dist::WriteResp               3731                       # Transaction distribution
system.iobus.trans_dist::MessageReq                18                       # Transaction distribution
system.iobus.trans_dist::MessageResp               18                       # Transaction distribution
system.iobus.pkt_count_system.pc.south_bridge.io_apic.int_master::system.ruby.l1_cntrl0.sequencer.pio-slave-port            4                       # Packet count per connected master and slave (bytes)
system.iobus.pkt_count_system.pc.south_bridge.io_apic.int_master::system.ruby.l1_cntrl1.sequencer.pio-slave-port            2                       # Packet count per connected master and slave (bytes)
system.iobus.pkt_count_system.pc.south_bridge.io_apic.int_master::system.ruby.l1_cntrl2.sequencer.pio-slave-port            4                       # Packet count per connected master and slave (bytes)
system.iobus.pkt_count_system.pc.south_bridge.io_apic.int_master::system.ruby.l1_cntrl3.sequencer.pio-slave-port            4                       # Packet count per connected master and slave (bytes)
system.iobus.pkt_count_system.pc.south_bridge.io_apic.int_master::total           14                       # Packet count per connected master and slave (bytes)
system.iobus.pkt_count_system.ruby.l1_cntrl0.sequencer.mem-master-port::system.pc.south_bridge.ide.pio           12                       # Packet count per connected master and slave (bytes)
system.iobus.pkt_count_system.ruby.l1_cntrl0.sequencer.mem-master-port::system.pc.south_bridge.io_apic.pio            8                       # Packet count per connected master and slave (bytes)
system.iobus.pkt_count_system.ruby.l1_cntrl0.sequencer.mem-master-port::system.ruby.l1_cntrl0.sequencer.pio-slave-port         1832                       # Packet count per connected master and slave (bytes)
system.iobus.pkt_count_system.ruby.l1_cntrl0.sequencer.mem-master-port::system.ruby.l1_cntrl1.sequencer.pio-slave-port            6                       # Packet count per connected master and slave (bytes)
system.iobus.pkt_count_system.ruby.l1_cntrl0.sequencer.mem-master-port::system.ruby.l1_cntrl2.sequencer.pio-slave-port            2                       # Packet count per connected master and slave (bytes)
system.iobus.pkt_count_system.ruby.l1_cntrl0.sequencer.mem-master-port::system.ruby.l1_cntrl3.sequencer.pio-slave-port            4                       # Packet count per connected master and slave (bytes)
system.iobus.pkt_count_system.ruby.l1_cntrl0.sequencer.mem-master-port::total         1864                       # Packet count per connected master and slave (bytes)
system.iobus.pkt_count_system.ruby.l1_cntrl1.sequencer.mem-master-port::system.pc.south_bridge.ide.pio           80                       # Packet count per connected master and slave (bytes)
system.iobus.pkt_count_system.ruby.l1_cntrl1.sequencer.mem-master-port::system.pc.com_1.pio            2                       # Packet count per connected master and slave (bytes)
system.iobus.pkt_count_system.ruby.l1_cntrl1.sequencer.mem-master-port::system.ruby.l1_cntrl1.sequencer.pio-slave-port         1822                       # Packet count per connected master and slave (bytes)
system.iobus.pkt_count_system.ruby.l1_cntrl1.sequencer.mem-master-port::system.ruby.l1_cntrl2.sequencer.pio-slave-port            2                       # Packet count per connected master and slave (bytes)
system.iobus.pkt_count_system.ruby.l1_cntrl1.sequencer.mem-master-port::total         1906                       # Packet count per connected master and slave (bytes)
system.iobus.pkt_count_system.ruby.l1_cntrl2.sequencer.mem-master-port::system.pc.south_bridge.ide.pio           46                       # Packet count per connected master and slave (bytes)
system.iobus.pkt_count_system.ruby.l1_cntrl2.sequencer.mem-master-port::system.pc.south_bridge.io_apic.pio            6                       # Packet count per connected master and slave (bytes)
system.iobus.pkt_count_system.ruby.l1_cntrl2.sequencer.mem-master-port::system.pc.com_1.pio          174                       # Packet count per connected master and slave (bytes)
system.iobus.pkt_count_system.ruby.l1_cntrl2.sequencer.mem-master-port::system.ruby.l1_cntrl1.sequencer.pio-slave-port            2                       # Packet count per connected master and slave (bytes)
system.iobus.pkt_count_system.ruby.l1_cntrl2.sequencer.mem-master-port::system.ruby.l1_cntrl2.sequencer.pio-slave-port         1824                       # Packet count per connected master and slave (bytes)
system.iobus.pkt_count_system.ruby.l1_cntrl2.sequencer.mem-master-port::system.ruby.l1_cntrl3.sequencer.pio-slave-port            2                       # Packet count per connected master and slave (bytes)
system.iobus.pkt_count_system.ruby.l1_cntrl2.sequencer.mem-master-port::total         2054                       # Packet count per connected master and slave (bytes)
system.iobus.pkt_count_system.ruby.l1_cntrl3.sequencer.mem-master-port::system.pc.south_bridge.ide.pio           46                       # Packet count per connected master and slave (bytes)
system.iobus.pkt_count_system.ruby.l1_cntrl3.sequencer.mem-master-port::system.pc.south_bridge.io_apic.pio            8                       # Packet count per connected master and slave (bytes)
system.iobus.pkt_count_system.ruby.l1_cntrl3.sequencer.mem-master-port::system.ruby.l1_cntrl0.sequencer.pio-slave-port            2                       # Packet count per connected master and slave (bytes)
system.iobus.pkt_count_system.ruby.l1_cntrl3.sequencer.mem-master-port::system.ruby.l1_cntrl1.sequencer.pio-slave-port            2                       # Packet count per connected master and slave (bytes)
system.iobus.pkt_count_system.ruby.l1_cntrl3.sequencer.mem-master-port::system.ruby.l1_cntrl3.sequencer.pio-slave-port         1824                       # Packet count per connected master and slave (bytes)
system.iobus.pkt_count_system.ruby.l1_cntrl3.sequencer.mem-master-port::total         1882                       # Packet count per connected master and slave (bytes)
system.iobus.pkt_count::total                    7720                       # Packet count per connected master and slave (bytes)
system.iobus.pkt_size_system.pc.south_bridge.io_apic.int_master::system.ruby.l1_cntrl0.sequencer.pio-slave-port            8                       # Cumulative packet size per connected master and slave (bytes)
system.iobus.pkt_size_system.pc.south_bridge.io_apic.int_master::system.ruby.l1_cntrl1.sequencer.pio-slave-port            4                       # Cumulative packet size per connected master and slave (bytes)
system.iobus.pkt_size_system.pc.south_bridge.io_apic.int_master::system.ruby.l1_cntrl2.sequencer.pio-slave-port            8                       # Cumulative packet size per connected master and slave (bytes)
system.iobus.pkt_size_system.pc.south_bridge.io_apic.int_master::system.ruby.l1_cntrl3.sequencer.pio-slave-port            8                       # Cumulative packet size per connected master and slave (bytes)
system.iobus.pkt_size_system.pc.south_bridge.io_apic.int_master::total           28                       # Cumulative packet size per connected master and slave (bytes)
system.iobus.pkt_size_system.ruby.l1_cntrl0.sequencer.mem-master-port::system.pc.south_bridge.ide.pio            6                       # Cumulative packet size per connected master and slave (bytes)
system.iobus.pkt_size_system.ruby.l1_cntrl0.sequencer.mem-master-port::system.pc.south_bridge.io_apic.pio           16                       # Cumulative packet size per connected master and slave (bytes)
system.iobus.pkt_size_system.ruby.l1_cntrl0.sequencer.mem-master-port::system.ruby.l1_cntrl0.sequencer.pio-slave-port         3664                       # Cumulative packet size per connected master and slave (bytes)
system.iobus.pkt_size_system.ruby.l1_cntrl0.sequencer.mem-master-port::system.ruby.l1_cntrl1.sequencer.pio-slave-port           12                       # Cumulative packet size per connected master and slave (bytes)
system.iobus.pkt_size_system.ruby.l1_cntrl0.sequencer.mem-master-port::system.ruby.l1_cntrl2.sequencer.pio-slave-port            4                       # Cumulative packet size per connected master and slave (bytes)
system.iobus.pkt_size_system.ruby.l1_cntrl0.sequencer.mem-master-port::system.ruby.l1_cntrl3.sequencer.pio-slave-port            8                       # Cumulative packet size per connected master and slave (bytes)
system.iobus.pkt_size_system.ruby.l1_cntrl0.sequencer.mem-master-port::total         3710                       # Cumulative packet size per connected master and slave (bytes)
system.iobus.pkt_size_system.ruby.l1_cntrl1.sequencer.mem-master-port::system.pc.south_bridge.ide.pio           46                       # Cumulative packet size per connected master and slave (bytes)
system.iobus.pkt_size_system.ruby.l1_cntrl1.sequencer.mem-master-port::system.pc.com_1.pio            1                       # Cumulative packet size per connected master and slave (bytes)
system.iobus.pkt_size_system.ruby.l1_cntrl1.sequencer.mem-master-port::system.ruby.l1_cntrl1.sequencer.pio-slave-port         3644                       # Cumulative packet size per connected master and slave (bytes)
system.iobus.pkt_size_system.ruby.l1_cntrl1.sequencer.mem-master-port::system.ruby.l1_cntrl2.sequencer.pio-slave-port            4                       # Cumulative packet size per connected master and slave (bytes)
system.iobus.pkt_size_system.ruby.l1_cntrl1.sequencer.mem-master-port::total         3695                       # Cumulative packet size per connected master and slave (bytes)
system.iobus.pkt_size_system.ruby.l1_cntrl2.sequencer.mem-master-port::system.pc.south_bridge.ide.pio           26                       # Cumulative packet size per connected master and slave (bytes)
system.iobus.pkt_size_system.ruby.l1_cntrl2.sequencer.mem-master-port::system.pc.south_bridge.io_apic.pio           12                       # Cumulative packet size per connected master and slave (bytes)
system.iobus.pkt_size_system.ruby.l1_cntrl2.sequencer.mem-master-port::system.pc.com_1.pio           87                       # Cumulative packet size per connected master and slave (bytes)
system.iobus.pkt_size_system.ruby.l1_cntrl2.sequencer.mem-master-port::system.ruby.l1_cntrl1.sequencer.pio-slave-port            4                       # Cumulative packet size per connected master and slave (bytes)
system.iobus.pkt_size_system.ruby.l1_cntrl2.sequencer.mem-master-port::system.ruby.l1_cntrl2.sequencer.pio-slave-port         3648                       # Cumulative packet size per connected master and slave (bytes)
system.iobus.pkt_size_system.ruby.l1_cntrl2.sequencer.mem-master-port::system.ruby.l1_cntrl3.sequencer.pio-slave-port            4                       # Cumulative packet size per connected master and slave (bytes)
system.iobus.pkt_size_system.ruby.l1_cntrl2.sequencer.mem-master-port::total         3781                       # Cumulative packet size per connected master and slave (bytes)
system.iobus.pkt_size_system.ruby.l1_cntrl3.sequencer.mem-master-port::system.pc.south_bridge.ide.pio           26                       # Cumulative packet size per connected master and slave (bytes)
system.iobus.pkt_size_system.ruby.l1_cntrl3.sequencer.mem-master-port::system.pc.south_bridge.io_apic.pio           16                       # Cumulative packet size per connected master and slave (bytes)
system.iobus.pkt_size_system.ruby.l1_cntrl3.sequencer.mem-master-port::system.ruby.l1_cntrl0.sequencer.pio-slave-port            4                       # Cumulative packet size per connected master and slave (bytes)
system.iobus.pkt_size_system.ruby.l1_cntrl3.sequencer.mem-master-port::system.ruby.l1_cntrl1.sequencer.pio-slave-port            4                       # Cumulative packet size per connected master and slave (bytes)
system.iobus.pkt_size_system.ruby.l1_cntrl3.sequencer.mem-master-port::system.ruby.l1_cntrl3.sequencer.pio-slave-port         3648                       # Cumulative packet size per connected master and slave (bytes)
system.iobus.pkt_size_system.ruby.l1_cntrl3.sequencer.mem-master-port::total         3698                       # Cumulative packet size per connected master and slave (bytes)
system.iobus.pkt_size::total                    14912                       # Cumulative packet size per connected master and slave (bytes)
system.iobus.reqLayer2.occupancy               159000                       # Layer occupancy (ticks)
system.iobus.reqLayer2.utilization                0.0                       # Layer utilization (%)
system.iobus.reqLayer8.occupancy                20497                       # Layer occupancy (ticks)
system.iobus.reqLayer8.utilization                0.0                       # Layer utilization (%)
system.iobus.reqLayer12.occupancy              112500                       # Layer occupancy (ticks)
system.iobus.reqLayer12.utilization               0.0                       # Layer utilization (%)
system.iobus.reqLayer17.occupancy             2035980                       # Layer occupancy (ticks)
system.iobus.reqLayer17.utilization               0.0                       # Layer utilization (%)
system.iobus.reqLayer18.occupancy             2287498                       # Layer occupancy (ticks)
system.iobus.reqLayer18.utilization               0.0                       # Layer utilization (%)
system.iobus.reqLayer19.occupancy             2283497                       # Layer occupancy (ticks)
system.iobus.reqLayer19.utilization               0.0                       # Layer utilization (%)
system.iobus.reqLayer20.occupancy             2286493                       # Layer occupancy (ticks)
system.iobus.reqLayer20.utilization               0.0                       # Layer utilization (%)
system.iobus.respLayer0.occupancy               11496                       # Layer occupancy (ticks)
system.iobus.respLayer0.utilization               0.0                       # Layer utilization (%)
system.iobus.respLayer2.occupancy             1399500                       # Layer occupancy (ticks)
system.iobus.respLayer2.utilization               0.0                       # Layer utilization (%)
system.iobus.respLayer4.occupancy             1421500                       # Layer occupancy (ticks)
system.iobus.respLayer4.utilization               0.0                       # Layer utilization (%)
system.iobus.respLayer6.occupancy             1559000                       # Layer occupancy (ticks)
system.iobus.respLayer6.utilization               0.0                       # Layer utilization (%)
system.iobus.respLayer8.occupancy             1409000                       # Layer occupancy (ticks)
system.iobus.respLayer8.utilization               0.0                       # Layer utilization (%)
system.pc.south_bridge.ide.disks.dma_read_full_pages            1                       # Number of full page size DMA reads (not PRD).
system.pc.south_bridge.ide.disks.dma_read_bytes         4096                       # Number of bytes transfered via DMA reads (not PRD).
system.pc.south_bridge.ide.disks.dma_read_txs            1                       # Number of DMA read transactions (not PRD).
system.pc.south_bridge.ide.disks.dma_write_full_pages           45                       # Number of full page size DMA writes.
system.pc.south_bridge.ide.disks.dma_write_bytes       184320                       # Number of bytes transfered via DMA writes.
system.pc.south_bridge.ide.disks.dma_write_txs           45                       # Number of DMA write transactions.
system.ruby.clk_domain.clock                      500                       # Clock period in ticks
system.ruby.delayHist::bucket_size                  4                       # delay histogram for all message
system.ruby.delayHist::max_bucket                  39                       # delay histogram for all message
system.ruby.delayHist::samples               13473442                       # delay histogram for all message
system.ruby.delayHist::mean                  0.722096                       # delay histogram for all message
system.ruby.delayHist::stdev                 2.291413                       # delay histogram for all message
system.ruby.delayHist                    |    12259018     90.99%     90.99% |         831      0.01%     90.99% |     1213433      9.01%    100.00% |          45      0.00%    100.00% |         106      0.00%    100.00% |           4      0.00%    100.00% |           5      0.00%    100.00% |           0      0.00%    100.00% |           0      0.00%    100.00% |           0      0.00%    100.00% # delay histogram for all message
system.ruby.delayHist::total                 13473442                       # delay histogram for all message
system.ruby.outstanding_req_hist_seqr::bucket_size            1                      
system.ruby.outstanding_req_hist_seqr::max_bucket            9                      
system.ruby.outstanding_req_hist_seqr::samples   3589081840                      
system.ruby.outstanding_req_hist_seqr::mean     1.000000                      
system.ruby.outstanding_req_hist_seqr::gmean     1.000000                      
system.ruby.outstanding_req_hist_seqr::stdev     0.000254                      
system.ruby.outstanding_req_hist_seqr    |           0      0.00%      0.00% |  3589081609    100.00%    100.00% |         231      0.00%    100.00% |           0      0.00%    100.00% |           0      0.00%    100.00% |           0      0.00%    100.00% |           0      0.00%    100.00% |           0      0.00%    100.00% |           0      0.00%    100.00% |           0      0.00%    100.00%
system.ruby.outstanding_req_hist_seqr::total   3589081840                      
system.ruby.latency_hist_seqr::bucket_size          128                      
system.ruby.latency_hist_seqr::max_bucket         1279                      
system.ruby.latency_hist_seqr::samples     3589081840                      
system.ruby.latency_hist_seqr::mean          1.018555                      
system.ruby.latency_hist_seqr::gmean         1.003012                      
system.ruby.latency_hist_seqr::stdev         0.660715                      
[...]
system.ruby.DMA_Controller.Data          |          96    100.00%    100.00% |           0      0.00%    100.00%
system.ruby.DMA_Controller.Data::total             96                      
system.ruby.DMA_Controller.Ack           |        3008    100.00%    100.00% |           0      0.00%    100.00%
system.ruby.DMA_Controller.Ack::total            3008                      
system.ruby.DMA_Controller.READY.ReadRequest |          96    100.00%    100.00% |           0      0.00%    100.00%
system.ruby.DMA_Controller.READY.ReadRequest::total           96                      
system.ruby.DMA_Controller.READY.WriteRequest |        3008    100.00%    100.00% |           0      0.00%    100.00%
system.ruby.DMA_Controller.READY.WriteRequest::total         3008                      
system.ruby.DMA_Controller.BUSY_RD.Data  |          96    100.00%    100.00% |           0      0.00%    100.00%
system.ruby.DMA_Controller.BUSY_RD.Data::total           96                      
system.ruby.DMA_Controller.BUSY_WR.Ack   |        3008    100.00%    100.00% |           0      0.00%    100.00%
system.ruby.DMA_Controller.BUSY_WR.Ack::total         3008                      
system.ruby.L1Cache_Controller.Load      |   566422524     98.44%     98.44% |      983367      0.17%     98.61% |     1700042      0.30%     98.91% |     6274812      1.09%    100.00%
system.ruby.L1Cache_Controller.Load::total    575380745                      
system.ruby.L1Cache_Controller.Ifetch    |18446744072221761536    100.00%    100.00% |     4458984      0.00%    100.00% |     8755152      0.00%    100.00% |    30540063      0.00%    100.00%
system.ruby.L1Cache_Controller.Ifetch::total 18446744072265515008                      
system.ruby.L1Cache_Controller.Store     |   172377840     97.42%     97.42% |      721035      0.41%     97.83% |     1276610      0.72%     98.55% |     2566400      1.45%    100.00%
system.ruby.L1Cache_Controller.Store::total    176941885                      
system.ruby.L1Cache_Controller.Inv       |        5643      8.37%      8.37% |       20446     30.31%     38.68% |       20768     30.79%     69.46% |       20600     30.54%    100.00%
system.ruby.L1Cache_Controller.Inv::total        67457                      
system.ruby.L1Cache_Controller.L1_Replacement |     3488877     90.90%     90.90% |       68220      1.78%     92.68% |      139854      3.64%     96.33% |      141014      3.67%    100.00%
system.ruby.L1Cache_Controller.L1_Replacement::total      3837965                      
system.ruby.L1Cache_Controller.Fwd_GETX  |        1204     17.55%     17.55% |        1280     18.66%     36.20% |        1472     21.45%     57.66% |        2905     42.34%    100.00%
system.ruby.L1Cache_Controller.Fwd_GETX::total         6861                      
system.ruby.L1Cache_Controller.Fwd_GETS  |        5820     21.25%     21.25% |        6960     25.42%     46.67% |        5431     19.83%     66.50% |        9174     33.50%    100.00%
system.ruby.L1Cache_Controller.Fwd_GETS::total        27385                      
system.ruby.L1Cache_Controller.Data      |        2505     38.03%     38.03% |         938     14.24%     52.27% |        2163     32.84%     85.11% |         981     14.89%    100.00%
system.ruby.L1Cache_Controller.Data::total         6587                      
system.ruby.L1Cache_Controller.Data_Exclusive |      964860     91.83%     91.83% |       10723      1.02%     92.85% |       34176      3.25%     96.10% |       40993      3.90%    100.00%
system.ruby.L1Cache_Controller.Data_Exclusive::total      1050752                      
system.ruby.L1Cache_Controller.DataS_fromL1 |        1990      7.27%      7.27% |        6957     25.40%     32.67% |        7914     28.90%     61.57% |       10524     38.43%    100.00%
system.ruby.L1Cache_Controller.DataS_fromL1::total        27385                      
system.ruby.L1Cache_Controller.Data_all_Acks |     2521314     90.75%     90.75% |       56483      2.03%     92.78% |      103300      3.72%     96.50% |       97237      3.50%    100.00%
system.ruby.L1Cache_Controller.Data_all_Acks::total      2778334                      
system.ruby.L1Cache_Controller.Ack       |       19333     44.26%     44.26% |        7456     17.07%     61.34% |        7775     17.80%     79.14% |        9112     20.86%    100.00%
system.ruby.L1Cache_Controller.Ack::total        43676                      
system.ruby.L1Cache_Controller.Ack_all   |        8635     33.73%     33.73% |        4731     18.48%     52.21% |        6012     23.48%     75.69% |        6223     24.31%    100.00%
system.ruby.L1Cache_Controller.Ack_all::total        25601                      
system.ruby.L1Cache_Controller.WB_Ack    |     1908138     93.56%     93.56% |       13931      0.68%     94.24% |       50990      2.50%     96.74% |       66385      3.26%    100.00%
system.ruby.L1Cache_Controller.WB_Ack::total      2039444                      
system.ruby.L1Cache_Controller.NP.Load   |     1443467     91.61%     91.61% |       23740      1.51%     93.12% |       52428      3.33%     96.44% |       56036      3.56%    100.00%
system.ruby.L1Cache_Controller.NP.Load::total      1575671                      
system.ruby.L1Cache_Controller.NP.Ifetch |     1101473     87.32%     87.32% |       37237      2.95%     90.27% |       67962      5.39%     95.66% |       54803      4.34%    100.00%
system.ruby.L1Cache_Controller.NP.Ifetch::total      1261475                      
system.ruby.L1Cache_Controller.NP.Store  |      944455     94.31%     94.31% |        7243      0.72%     95.03% |       19581      1.96%     96.99% |       30175      3.01%    100.00%
system.ruby.L1Cache_Controller.NP.Store::total      1001454                      
system.ruby.L1Cache_Controller.NP.Inv    |        3551     13.66%     13.66% |        7283     28.02%     41.69% |        8308     31.97%     73.65% |        6847     26.35%    100.00%
system.ruby.L1Cache_Controller.NP.Inv::total        25989                      
system.ruby.L1Cache_Controller.I.Load    |         582      2.85%      2.85% |        6132     30.04%     32.90% |        6877     33.69%     66.59% |        6819     33.41%    100.00%
system.ruby.L1Cache_Controller.I.Load::total        20410                      
system.ruby.L1Cache_Controller.I.Ifetch  |           8     15.38%     15.38% |          22     42.31%     57.69% |           7     13.46%     71.15% |          15     28.85%    100.00%
system.ruby.L1Cache_Controller.I.Ifetch::total           52                      
system.ruby.L1Cache_Controller.I.Store   |         684     17.12%     17.12% |         727     18.20%     35.32% |         698     17.47%     52.79% |        1886     47.21%    100.00%
system.ruby.L1Cache_Controller.I.Store::total         3995                      
system.ruby.L1Cache_Controller.I.L1_Replacement |        2195      9.34%      9.34% |        7360     31.31%     40.64% |        6327     26.91%     67.56% |        7627     32.44%    100.00%
system.ruby.L1Cache_Controller.I.L1_Replacement::total        23509                      
system.ruby.L1Cache_Controller.S.Load    |   141191927     99.14%     99.14% |      201199      0.14%     99.28% |      259939      0.18%     99.46% |      765075      0.54%    100.00%
system.ruby.L1Cache_Controller.S.Load::total    142418140                      
system.ruby.L1Cache_Controller.S.Ifetch  |18446744072220659712    100.00%    100.00% |     4421725      0.00%    100.00% |     8687182      0.00%    100.00% |    30485245      0.00%    100.00%
system.ruby.L1Cache_Controller.S.Ifetch::total 18446744072264253440                      
system.ruby.L1Cache_Controller.S.Store   |        6130     32.24%     32.24% |        3793     19.95%     52.19% |        3849     20.24%     72.43% |        5243     27.57%    100.00%
system.ruby.L1Cache_Controller.S.Store::total        19015                      
system.ruby.L1Cache_Controller.S.Inv     |        1814      4.51%      4.51% |       12637     31.42%     35.93% |       12294     30.56%     66.49% |       13478     33.51%    100.00%
system.ruby.L1Cache_Controller.S.Inv::total        40223                      
system.ruby.L1Cache_Controller.S.L1_Replacement |     1578544     88.93%     88.93% |       46929      2.64%     91.58% |       82537      4.65%     96.23% |       67002      3.77%    100.00%
system.ruby.L1Cache_Controller.S.L1_Replacement::total      1775012                      
system.ruby.L1Cache_Controller.E.Load    |    79968556     97.46%     97.46% |      117538      0.14%     97.61% |      317855      0.39%     97.99% |     1645332      2.01%    100.00%
system.ruby.L1Cache_Controller.E.Load::total     82049281                      
system.ruby.L1Cache_Controller.E.Store   |      220372     90.91%     90.91% |        1680      0.69%     91.60% |       11299      4.66%     96.27% |        9051      3.73%    100.00%
system.ruby.L1Cache_Controller.E.Store::total       242402                      
system.ruby.L1Cache_Controller.E.Inv     |          73     20.33%     20.33% |         177     49.30%     69.64% |          53     14.76%     84.40% |          56     15.60%    100.00%
system.ruby.L1Cache_Controller.E.Inv::total          359                      
system.ruby.L1Cache_Controller.E.L1_Replacement |      743609     93.49%     93.49% |        4812      0.60%     94.09% |       19905      2.50%     96.60% |       27065      3.40%    100.00%
system.ruby.L1Cache_Controller.E.L1_Replacement::total       795391                      
system.ruby.L1Cache_Controller.E.Fwd_GETX |          86      9.19%      9.19% |          38      4.06%     13.25% |         443     47.33%     60.58% |         369     39.42%    100.00%
system.ruby.L1Cache_Controller.E.Fwd_GETX::total          936                      
system.ruby.L1Cache_Controller.E.Fwd_GETS |         344      2.99%      2.99% |        3947     34.33%     37.33% |        2422     21.07%     58.39% |        4783     41.61%    100.00%
system.ruby.L1Cache_Controller.E.Fwd_GETS::total        11496                      
system.ruby.L1Cache_Controller.M.Load    |   343817992     98.43%     98.43% |      634758      0.18%     98.61% |     1062943      0.30%     98.91% |     3801550      1.09%    100.00%
system.ruby.L1Cache_Controller.M.Load::total    349317243                      
system.ruby.L1Cache_Controller.M.Store   |   171206199     97.46%     97.46% |      707592      0.40%     97.86% |     1241183      0.71%     98.57% |     2520045      1.43%    100.00%
system.ruby.L1Cache_Controller.M.Store::total    175675019                      
system.ruby.L1Cache_Controller.M.Inv     |         205     23.16%     23.16% |         349     39.44%     62.60% |         113     12.77%     75.37% |         218     24.63%    100.00%
system.ruby.L1Cache_Controller.M.Inv::total          885                      
system.ruby.L1Cache_Controller.M.L1_Replacement |     1164529     93.61%     93.61% |        9119      0.73%     94.34% |       31085      2.50%     96.84% |       39320      3.16%    100.00%
system.ruby.L1Cache_Controller.M.L1_Replacement::total      1244053                      
system.ruby.L1Cache_Controller.M.Fwd_GETX |        1118     18.87%     18.87% |        1242     20.96%     39.83% |        1029     17.37%     57.20% |        2536     42.80%    100.00%
system.ruby.L1Cache_Controller.M.Fwd_GETX::total         5925                      
system.ruby.L1Cache_Controller.M.Fwd_GETS |        5476     34.46%     34.46% |        3013     18.96%     53.43% |        3009     18.94%     72.36% |        4391     27.64%    100.00%
system.ruby.L1Cache_Controller.M.Fwd_GETS::total        15889                      
system.ruby.L1Cache_Controller.IS.Data_Exclusive |      964860     91.83%     91.83% |       10723      1.02%     92.85% |       34176      3.25%     96.10% |       40993      3.90%    100.00%
system.ruby.L1Cache_Controller.IS.Data_Exclusive::total      1050752                      
system.ruby.L1Cache_Controller.IS.DataS_fromL1 |        1990      7.27%      7.27% |        6957     25.40%     32.67% |        7914     28.90%     61.57% |       10524     38.43%    100.00%
system.ruby.L1Cache_Controller.IS.DataS_fromL1::total        27385                      
system.ruby.L1Cache_Controller.IS.Data_all_Acks |     1578680     88.72%     88.72% |       49451      2.78%     91.50% |       85184      4.79%     96.28% |       66156      3.72%    100.00%
system.ruby.L1Cache_Controller.IS.Data_all_Acks::total      1779471                      
system.ruby.L1Cache_Controller.IM.Data   |        2505     38.03%     38.03% |         938     14.24%     52.27% |        2163     32.84%     85.11% |         981     14.89%    100.00%
system.ruby.L1Cache_Controller.IM.Data::total         6587                      
system.ruby.L1Cache_Controller.IM.Data_all_Acks |      942634     94.37%     94.37% |        7032      0.70%     95.07% |       18116      1.81%     96.89% |       31081      3.11%    100.00%
system.ruby.L1Cache_Controller.IM.Data_all_Acks::total       998863                      
system.ruby.L1Cache_Controller.SM.Inv    |           0      0.00%      0.00% |           0      0.00%      0.00% |           0      0.00%      0.00% |           1    100.00%    100.00%
system.ruby.L1Cache_Controller.SM.Inv::total            1                      
system.ruby.L1Cache_Controller.SM.Ack    |       19333     44.26%     44.26% |        7456     17.07%     61.34% |        7775     17.80%     79.14% |        9112     20.86%    100.00%
system.ruby.L1Cache_Controller.SM.Ack::total        43676                      
system.ruby.L1Cache_Controller.SM.Ack_all |        8635     33.73%     33.73% |        4731     18.48%     52.21% |        6012     23.48%     75.69% |        6223     24.31%    100.00%
system.ruby.L1Cache_Controller.SM.Ack_all::total        25601                      
system.ruby.L1Cache_Controller.M_I.Ifetch |           0      0.00%      0.00% |           0      0.00%      0.00% |           1    100.00%    100.00% |           0      0.00%    100.00%
system.ruby.L1Cache_Controller.M_I.Ifetch::total            1                      
system.ruby.L1Cache_Controller.M_I.WB_Ack |     1908138     93.56%     93.56% |       13931      0.68%     94.24% |       50990      2.50%     96.74% |       66385      3.26%    100.00%
system.ruby.L1Cache_Controller.M_I.WB_Ack::total      2039444                      
system.ruby.L2Cache_Controller.L1_GET_INSTR      1261527      0.00%      0.00%
system.ruby.L2Cache_Controller.L1_GETS        1596724      0.00%      0.00%
system.ruby.L2Cache_Controller.L1_GETX        1005458      0.00%      0.00%
system.ruby.L2Cache_Controller.L1_UPGRADE        19015      0.00%      0.00%
system.ruby.L2Cache_Controller.L1_PUTX        2039444      0.00%      0.00%
system.ruby.L2Cache_Controller.L2_Replacement        23756      0.00%      0.00%
system.ruby.L2Cache_Controller.L2_Replacement_clean        15706      0.00%      0.00%
system.ruby.L2Cache_Controller.Mem_Data         56554      0.00%      0.00%
system.ruby.L2Cache_Controller.Mem_Ack          39515      0.00%      0.00%
system.ruby.L2Cache_Controller.WB_Data          16774      0.00%      0.00%
system.ruby.L2Cache_Controller.WB_Data_clean        11496      0.00%      0.00%
system.ruby.L2Cache_Controller.Ack               8853      0.00%      0.00%
system.ruby.L2Cache_Controller.Ack_all           7456      0.00%      0.00%
system.ruby.L2Cache_Controller.Unblock          27385      0.00%      0.00%
system.ruby.L2Cache_Controller.Exclusive_Unblock      2075216      0.00%      0.00%
system.ruby.L2Cache_Controller.MEM_Inv            106      0.00%      0.00%
system.ruby.L2Cache_Controller.NP.L1_GET_INSTR         8150      0.00%      0.00%
system.ruby.L2Cache_Controller.NP.L1_GETS        22332      0.00%      0.00%
system.ruby.L2Cache_Controller.NP.L1_GETX        26072      0.00%      0.00%
system.ruby.L2Cache_Controller.SS.L1_GET_INSTR      1253362      0.00%      0.00%
system.ruby.L2Cache_Controller.SS.L1_GETS       517933      0.00%      0.00%
system.ruby.L2Cache_Controller.SS.L1_GETX         6587      0.00%      0.00%
system.ruby.L2Cache_Controller.SS.L1_UPGRADE        19014      0.00%      0.00%
system.ruby.L2Cache_Controller.SS.L2_Replacement          490      0.00%      0.00%
system.ruby.L2Cache_Controller.SS.L2_Replacement_clean         6607      0.00%      0.00%
system.ruby.L2Cache_Controller.M.L1_GET_INSTR           12      0.00%      0.00%
system.ruby.L2Cache_Controller.M.L1_GETS      1028425      0.00%      0.00%
system.ruby.L2Cache_Controller.M.L1_GETX       965930      0.00%      0.00%
system.ruby.L2Cache_Controller.M.L2_Replacement        22744      0.00%      0.00%
system.ruby.L2Cache_Controller.M.L2_Replacement_clean         8386      0.00%      0.00%
system.ruby.L2Cache_Controller.M.MEM_Inv           44      0.00%      0.00%
system.ruby.L2Cache_Controller.MT.L1_GETS        27385      0.00%      0.00%
system.ruby.L2Cache_Controller.MT.L1_GETX         6861      0.00%      0.00%
system.ruby.L2Cache_Controller.MT.L1_PUTX      2039444      0.00%      0.00%
system.ruby.L2Cache_Controller.MT.L2_Replacement          522      0.00%      0.00%
system.ruby.L2Cache_Controller.MT.L2_Replacement_clean          713      0.00%      0.00%
system.ruby.L2Cache_Controller.MT.MEM_Inv            9      0.00%      0.00%
system.ruby.L2Cache_Controller.M_I.Mem_Ack        39515      0.00%      0.00%
system.ruby.L2Cache_Controller.M_I.MEM_Inv           44      0.00%      0.00%
system.ruby.L2Cache_Controller.MT_I.WB_Data          433      0.00%      0.00%
system.ruby.L2Cache_Controller.MT_I.Ack_all           98      0.00%      0.00%
system.ruby.L2Cache_Controller.MT_I.MEM_Inv            9      0.00%      0.00%
system.ruby.L2Cache_Controller.MCT_I.WB_Data          452      0.00%      0.00%
system.ruby.L2Cache_Controller.MCT_I.Ack_all          261      0.00%      0.00%
system.ruby.L2Cache_Controller.I_I.Ack           8225      0.00%      0.00%
system.ruby.L2Cache_Controller.I_I.Ack_all         6607      0.00%      0.00%
system.ruby.L2Cache_Controller.S_I.Ack            628      0.00%      0.00%
system.ruby.L2Cache_Controller.S_I.Ack_all          490      0.00%      0.00%
system.ruby.L2Cache_Controller.ISS.L1_GETS            5      0.00%      0.00%
system.ruby.L2Cache_Controller.ISS.Mem_Data        22327      0.00%      0.00%
system.ruby.L2Cache_Controller.IS.L1_GET_INSTR            3      0.00%      0.00%
system.ruby.L2Cache_Controller.IS.L1_GETS            1      0.00%      0.00%
system.ruby.L2Cache_Controller.IS.Mem_Data         8155      0.00%      0.00%
system.ruby.L2Cache_Controller.IM.Mem_Data        26072      0.00%      0.00%
system.ruby.L2Cache_Controller.SS_MB.L1_GETS           58      0.00%      0.00%
system.ruby.L2Cache_Controller.SS_MB.L1_GETX            1      0.00%      0.00%
system.ruby.L2Cache_Controller.SS_MB.L1_UPGRADE            1      0.00%      0.00%
system.ruby.L2Cache_Controller.SS_MB.Exclusive_Unblock        25601      0.00%      0.00%
system.ruby.L2Cache_Controller.MT_MB.L1_GETS          583      0.00%      0.00%
system.ruby.L2Cache_Controller.MT_MB.L1_GETX            5      0.00%      0.00%
system.ruby.L2Cache_Controller.MT_MB.Exclusive_Unblock      2049615      0.00%      0.00%
system.ruby.L2Cache_Controller.MT_IIB.L1_GETS            2      0.00%      0.00%
system.ruby.L2Cache_Controller.MT_IIB.L1_GETX            2      0.00%      0.00%
system.ruby.L2Cache_Controller.MT_IIB.WB_Data        15886      0.00%      0.00%
system.ruby.L2Cache_Controller.MT_IIB.WB_Data_clean        11487      0.00%      0.00%
system.ruby.L2Cache_Controller.MT_IIB.Unblock           12      0.00%      0.00%
system.ruby.L2Cache_Controller.MT_IB.WB_Data            3      0.00%      0.00%
system.ruby.L2Cache_Controller.MT_IB.WB_Data_clean            9      0.00%      0.00%
system.ruby.L2Cache_Controller.MT_SB.Unblock        27373      0.00%      0.00%

---------- End Simulation Statistics   ----------
