
---------- Begin Simulation Statistics ----------
sim_seconds                                  1.654262                       # Number of seconds simulated
sim_ticks                                1654262415500                       # Number of ticks simulated
final_tick                               53848296901501                       # Number of ticks from beginning of simulation (restored from checkpoints and never reset)
sim_freq                                 1000000000000                       # Frequency of simulated ticks
host_inst_rate                                 135851                       # Simulator instruction rate (inst/s)
host_op_rate                                   182017                       # Simulator op (including micro ops) rate (op/s)
host_tick_rate                              414076479                       # Simulator tick rate (ticks/s)
host_mem_usage                                2282220                       # Number of bytes of host memory used
host_seconds                                  3995.07                       # Real time elapsed on the host
sim_insts                                   542732657                       # Number of instructions simulated
sim_ops                                     727168370                       # Number of ops (including micro ops) simulated
system.voltage_domain.voltage                       1                       # Voltage in Volts
system.clk_domain.clock                          1000                       # Clock period in ticks
system.mem_ctrls.bytes_read::ruby.dir_cntrl0    677765184                       # Number of bytes read from this memory
system.mem_ctrls.bytes_read::total          677765184                       # Number of bytes read from this memory
system.mem_ctrls.bytes_written::ruby.dir_cntrl0    677762752                       # Number of bytes written to this memory
system.mem_ctrls.bytes_written::total       677762752                       # Number of bytes written to this memory
system.mem_ctrls.num_reads::ruby.dir_cntrl0     10590081                       # Number of read requests responded to by this memory
system.mem_ctrls.num_reads::total            10590081                       # Number of read requests responded to by this memory
system.mem_ctrls.num_writes::ruby.dir_cntrl0     10590043                       # Number of write requests responded to by this memory
system.mem_ctrls.num_writes::total           10590043                       # Number of write requests responded to by this memory
system.mem_ctrls.bw_read::ruby.dir_cntrl0    409708386                       # Total read bandwidth from this memory (bytes/s)
system.mem_ctrls.bw_read::total             409708386                       # Total read bandwidth from this memory (bytes/s)
system.mem_ctrls.bw_write::ruby.dir_cntrl0    409706916                       # Write bandwidth from this memory (bytes/s)
system.mem_ctrls.bw_write::total            409706916                       # Write bandwidth from this memory (bytes/s)
system.mem_ctrls.bw_total::ruby.dir_cntrl0    819415302                       # Total bandwidth to/from this memory (bytes/s)
system.mem_ctrls.bw_total::total            819415302                       # Total bandwidth to/from this memory (bytes/s)
system.mem_ctrls.readReqs                    10590081                       # Number of read requests accepted
system.mem_ctrls.writeReqs                   10590043                       # Number of write requests accepted
system.mem_ctrls.readBursts                  10590081                       # Number of DRAM read bursts, including those serviced by the write queue
system.mem_ctrls.writeBursts                 10590043                       # Number of DRAM write bursts, including those merged in the write queue
system.mem_ctrls.bytesReadDRAM              653305024                       # Total number of bytes read from DRAM
system.mem_ctrls.bytesReadWrQ                24460160                       # Total number of bytes read from write queue
system.mem_ctrls.bytesWritten               672255424                       # Total number of bytes written to DRAM
system.mem_ctrls.bytesReadSys               677765184                       # Total read bytes from the system interface side
system.mem_ctrls.bytesWrittenSys            677762752                       # Total written bytes from the system interface side
system.mem_ctrls.servicedByWrQ                 382190                       # Number of DRAM read bursts serviced by the write queue
system.mem_ctrls.mergedWrBursts                 86043                       # Number of DRAM write bursts merged with an existing one
system.mem_ctrls.neitherReadNorWriteReqs            0                       # Number of requests that are neither read nor write
system.mem_ctrls.perBankRdBursts::0            559990                       # Per bank write bursts
system.mem_ctrls.perBankRdBursts::1            639977                       # Per bank write bursts
system.mem_ctrls.perBankRdBursts::2            619281                       # Per bank write bursts
system.mem_ctrls.perBankRdBursts::3            942463                       # Per bank write bursts
system.mem_ctrls.perBankRdBursts::4            696480                       # Per bank write bursts
system.mem_ctrls.perBankRdBursts::5            712116                       # Per bank write bursts
system.mem_ctrls.perBankRdBursts::6            648973                       # Per bank write bursts
system.mem_ctrls.perBankRdBursts::7            850499                       # Per bank write bursts
system.mem_ctrls.perBankRdBursts::8            487221                       # Per bank write bursts
system.mem_ctrls.perBankRdBursts::9            690160                       # Per bank write bursts
system.mem_ctrls.perBankRdBursts::10           470486                       # Per bank write bursts
system.mem_ctrls.perBankRdBursts::11           561395                       # Per bank write bursts
system.mem_ctrls.perBankRdBursts::12           475589                       # Per bank write bursts
system.mem_ctrls.perBankRdBursts::13           584380                       # Per bank write bursts
system.mem_ctrls.perBankRdBursts::14           567821                       # Per bank write bursts
system.mem_ctrls.perBankRdBursts::15           701060                       # Per bank write bursts
system.mem_ctrls.perBankWrBursts::0            570108                       # Per bank write bursts
system.mem_ctrls.perBankWrBursts::1            655271                       # Per bank write bursts
system.mem_ctrls.perBankWrBursts::2            646121                       # Per bank write bursts
system.mem_ctrls.perBankWrBursts::3            990045                       # Per bank write bursts
system.mem_ctrls.perBankWrBursts::4            713221                       # Per bank write bursts
system.mem_ctrls.perBankWrBursts::5            729649                       # Per bank write bursts
system.mem_ctrls.perBankWrBursts::6            666292                       # Per bank write bursts
system.mem_ctrls.perBankWrBursts::7            872977                       # Per bank write bursts
system.mem_ctrls.perBankWrBursts::8            498143                       # Per bank write bursts
system.mem_ctrls.perBankWrBursts::9            701316                       # Per bank write bursts
system.mem_ctrls.perBankWrBursts::10           482897                       # Per bank write bursts
system.mem_ctrls.perBankWrBursts::11           574104                       # Per bank write bursts
system.mem_ctrls.perBankWrBursts::12           487479                       # Per bank write bursts
system.mem_ctrls.perBankWrBursts::13           612527                       # Per bank write bursts
system.mem_ctrls.perBankWrBursts::14           581808                       # Per bank write bursts
system.mem_ctrls.perBankWrBursts::15           722033                       # Per bank write bursts
system.mem_ctrls.numRdRetry                         0                       # Number of times read queue was full causing retry
system.mem_ctrls.numWrRetry                         0                       # Number of times write queue was full causing retry
system.mem_ctrls.totGap                  1654262410000                       # Total gap between requests
system.mem_ctrls.readPktSize::0                     0                       # Read request sizes (log2)
system.mem_ctrls.readPktSize::1                     0                       # Read request sizes (log2)
system.mem_ctrls.readPktSize::2                     0                       # Read request sizes (log2)
system.mem_ctrls.readPktSize::3                     0                       # Read request sizes (log2)
system.mem_ctrls.readPktSize::4                     0                       # Read request sizes (log2)
system.mem_ctrls.readPktSize::5                     0                       # Read request sizes (log2)
system.mem_ctrls.readPktSize::6              10590081                       # Read request sizes (log2)
system.mem_ctrls.writePktSize::0                    0                       # Write request sizes (log2)
system.mem_ctrls.writePktSize::1                    0                       # Write request sizes (log2)
system.mem_ctrls.writePktSize::2                    0                       # Write request sizes (log2)
system.mem_ctrls.writePktSize::3                    0                       # Write request sizes (log2)
system.mem_ctrls.writePktSize::4                    0                       # Write request sizes (log2)
system.mem_ctrls.writePktSize::5                    0                       # Write request sizes (log2)
system.mem_ctrls.writePktSize::6             10590043                       # Write request sizes (log2)
system.mem_ctrls.rdQLenPdf::0                10143757                       # What read queue length does an incoming req see
system.mem_ctrls.rdQLenPdf::1                   64124                       # What read queue length does an incoming req see
system.mem_ctrls.rdQLenPdf::2                      10                       # What read queue length does an incoming req see
system.mem_ctrls.rdQLenPdf::3                       0                       # What read queue length does an incoming req see
system.mem_ctrls.rdQLenPdf::4                       0                       # What read queue length does an incoming req see
system.mem_ctrls.rdQLenPdf::5                       0                       # What read queue length does an incoming req see
system.mem_ctrls.rdQLenPdf::6                       0                       # What read queue length does an incoming req see
system.mem_ctrls.rdQLenPdf::7                       0                       # What read queue length does an incoming req see
system.mem_ctrls.rdQLenPdf::8                       0                       # What read queue length does an incoming req see
system.mem_ctrls.rdQLenPdf::9                       0                       # What read queue length does an incoming req see
system.mem_ctrls.rdQLenPdf::10                      0                       # What read queue length does an incoming req see
system.mem_ctrls.rdQLenPdf::11                      0                       # What read queue length does an incoming req see
system.mem_ctrls.rdQLenPdf::12                      0                       # What read queue length does an incoming req see
system.mem_ctrls.rdQLenPdf::13                      0                       # What read queue length does an incoming req see
system.mem_ctrls.rdQLenPdf::14                      0                       # What read queue length does an incoming req see
system.mem_ctrls.rdQLenPdf::15                      0                       # What read queue length does an incoming req see
system.mem_ctrls.rdQLenPdf::16                      0                       # What read queue length does an incoming req see
system.mem_ctrls.rdQLenPdf::17                      0                       # What read queue length does an incoming req see
system.mem_ctrls.rdQLenPdf::18                      0                       # What read queue length does an incoming req see
system.mem_ctrls.rdQLenPdf::19                      0                       # What read queue length does an incoming req see
system.mem_ctrls.rdQLenPdf::20                      0                       # What read queue length does an incoming req see
system.mem_ctrls.rdQLenPdf::21                      0                       # What read queue length does an incoming req see
system.mem_ctrls.rdQLenPdf::22                      0                       # What read queue length does an incoming req see
system.mem_ctrls.rdQLenPdf::23                      0                       # What read queue length does an incoming req see
system.mem_ctrls.rdQLenPdf::24                      0                       # What read queue length does an incoming req see
system.mem_ctrls.rdQLenPdf::25                      0                       # What read queue length does an incoming req see
system.mem_ctrls.rdQLenPdf::26                      0                       # What read queue length does an incoming req see
system.mem_ctrls.rdQLenPdf::27                      0                       # What read queue length does an incoming req see
system.mem_ctrls.rdQLenPdf::28                      0                       # What read queue length does an incoming req see
system.mem_ctrls.rdQLenPdf::29                      0                       # What read queue length does an incoming req see
system.mem_ctrls.rdQLenPdf::30                      0                       # What read queue length does an incoming req see
system.mem_ctrls.rdQLenPdf::31                      0                       # What read queue length does an incoming req see
system.mem_ctrls.wrQLenPdf::0                       0                       # What write queue length does an incoming req see
system.mem_ctrls.wrQLenPdf::1                       0                       # What write queue length does an incoming req see
system.mem_ctrls.wrQLenPdf::2                       0                       # What write queue length does an incoming req see
system.mem_ctrls.wrQLenPdf::3                       0                       # What write queue length does an incoming req see
system.mem_ctrls.wrQLenPdf::4                       0                       # What write queue length does an incoming req see
system.mem_ctrls.wrQLenPdf::5                       0                       # What write queue length does an incoming req see
system.mem_ctrls.wrQLenPdf::6                       0                       # What write queue length does an incoming req see
system.mem_ctrls.wrQLenPdf::7                       0                       # What write queue length does an incoming req see
system.mem_ctrls.wrQLenPdf::8                       0                       # What write queue length does an incoming req see
system.mem_ctrls.wrQLenPdf::9                       0                       # What write queue length does an incoming req see
system.mem_ctrls.wrQLenPdf::10                      0                       # What write queue length does an incoming req see
system.mem_ctrls.wrQLenPdf::11                      0                       # What write queue length does an incoming req see
system.mem_ctrls.wrQLenPdf::12                      0                       # What write queue length does an incoming req see
system.mem_ctrls.wrQLenPdf::13                      0                       # What write queue length does an incoming req see
system.mem_ctrls.wrQLenPdf::14                      0                       # What write queue length does an incoming req see
system.mem_ctrls.wrQLenPdf::15                  15926                       # What write queue length does an incoming req see
system.mem_ctrls.wrQLenPdf::16                  18321                       # What write queue length does an incoming req see
system.mem_ctrls.wrQLenPdf::17                 638995                       # What write queue length does an incoming req see
system.mem_ctrls.wrQLenPdf::18                 655260                       # What write queue length does an incoming req see
system.mem_ctrls.wrQLenPdf::19                 656482                       # What write queue length does an incoming req see
system.mem_ctrls.wrQLenPdf::20                 656165                       # What write queue length does an incoming req see
system.mem_ctrls.wrQLenPdf::21                 656491                       # What write queue length does an incoming req see
system.mem_ctrls.wrQLenPdf::22                 657863                       # What write queue length does an incoming req see
system.mem_ctrls.wrQLenPdf::23                 656623                       # What write queue length does an incoming req see
system.mem_ctrls.wrQLenPdf::24                 655950                       # What write queue length does an incoming req see
system.mem_ctrls.wrQLenPdf::25                 655426                       # What write queue length does an incoming req see
system.mem_ctrls.wrQLenPdf::26                 654840                       # What write queue length does an incoming req see
system.mem_ctrls.wrQLenPdf::27                 654763                       # What write queue length does an incoming req see
system.mem_ctrls.wrQLenPdf::28                 654283                       # What write queue length does an incoming req see
system.mem_ctrls.wrQLenPdf::29                 654137                       # What write queue length does an incoming req see
system.mem_ctrls.wrQLenPdf::30                 654038                       # What write queue length does an incoming req see
system.mem_ctrls.wrQLenPdf::31                 653938                       # What write queue length does an incoming req see
system.mem_ctrls.wrQLenPdf::32                 653931                       # What write queue length does an incoming req see
system.mem_ctrls.wrQLenPdf::33                    384                       # What write queue length does an incoming req see
system.mem_ctrls.wrQLenPdf::34                    115                       # What write queue length does an incoming req see
system.mem_ctrls.wrQLenPdf::35                     46                       # What write queue length does an incoming req see
system.mem_ctrls.wrQLenPdf::36                     17                       # What write queue length does an incoming req see
system.mem_ctrls.wrQLenPdf::37                      4                       # What write queue length does an incoming req see
system.mem_ctrls.wrQLenPdf::38                      2                       # What write queue length does an incoming req see
system.mem_ctrls.wrQLenPdf::39                      0                       # What write queue length does an incoming req see
system.mem_ctrls.wrQLenPdf::40                      0                       # What write queue length does an incoming req see
system.mem_ctrls.wrQLenPdf::41                      0                       # What write queue length does an incoming req see
system.mem_ctrls.wrQLenPdf::42                      0                       # What write queue length does an incoming req see
system.mem_ctrls.wrQLenPdf::43                      0                       # What write queue length does an incoming req see
system.mem_ctrls.wrQLenPdf::44                      0                       # What write queue length does an incoming req see
system.mem_ctrls.wrQLenPdf::45                      0                       # What write queue length does an incoming req see
system.mem_ctrls.wrQLenPdf::46                      0                       # What write queue length does an incoming req see
system.mem_ctrls.wrQLenPdf::47                      0                       # What write queue length does an incoming req see
system.mem_ctrls.wrQLenPdf::48                      0                       # What write queue length does an incoming req see
system.mem_ctrls.wrQLenPdf::49                      0                       # What write queue length does an incoming req see
system.mem_ctrls.wrQLenPdf::50                      0                       # What write queue length does an incoming req see
system.mem_ctrls.wrQLenPdf::51                      0                       # What write queue length does an incoming req see
system.mem_ctrls.wrQLenPdf::52                      0                       # What write queue length does an incoming req see
system.mem_ctrls.wrQLenPdf::53                      0                       # What write queue length does an incoming req see
system.mem_ctrls.wrQLenPdf::54                      0                       # What write queue length does an incoming req see
system.mem_ctrls.wrQLenPdf::55                      0                       # What write queue length does an incoming req see
system.mem_ctrls.wrQLenPdf::56                      0                       # What write queue length does an incoming req see
system.mem_ctrls.wrQLenPdf::57                      0                       # What write queue length does an incoming req see
system.mem_ctrls.wrQLenPdf::58                      0                       # What write queue length does an incoming req see
system.mem_ctrls.wrQLenPdf::59                      0                       # What write queue length does an incoming req see
system.mem_ctrls.wrQLenPdf::60                      0                       # What write queue length does an incoming req see
system.mem_ctrls.wrQLenPdf::61                      0                       # What write queue length does an incoming req see
system.mem_ctrls.wrQLenPdf::62                      0                       # What write queue length does an incoming req see
system.mem_ctrls.wrQLenPdf::63                      0                       # What write queue length does an incoming req see
system.mem_ctrls.bytesPerActivate::samples      8575925                       # Bytes accessed per row activation
system.mem_ctrls.bytesPerActivate::mean    154.567635                       # Bytes accessed per row activation
system.mem_ctrls.bytesPerActivate::gmean   103.716107                       # Bytes accessed per row activation
system.mem_ctrls.bytesPerActivate::stdev   203.842696                       # Bytes accessed per row activation
system.mem_ctrls.bytesPerActivate::0-127      5220076     60.87%     60.87% # Bytes accessed per row activation
system.mem_ctrls.bytesPerActivate::128-255      2131279     24.85%     85.72% # Bytes accessed per row activation
system.mem_ctrls.bytesPerActivate::256-383       437210      5.10%     90.82% # Bytes accessed per row activation
system.mem_ctrls.bytesPerActivate::384-511       187755      2.19%     93.01% # Bytes accessed per row activation
system.mem_ctrls.bytesPerActivate::512-639       136557      1.59%     94.60% # Bytes accessed per row activation
system.mem_ctrls.bytesPerActivate::640-767        89366      1.04%     95.64% # Bytes accessed per row activation
system.mem_ctrls.bytesPerActivate::768-895        73979      0.86%     96.51% # Bytes accessed per row activation
system.mem_ctrls.bytesPerActivate::896-1023        62302      0.73%     97.23% # Bytes accessed per row activation
system.mem_ctrls.bytesPerActivate::1024-1151       237401      2.77%    100.00% # Bytes accessed per row activation
system.mem_ctrls.bytesPerActivate::total      8575925                       # Bytes accessed per row activation
system.mem_ctrls.rdPerTurnAround::samples       653918                       # Reads before turning the bus around for writes
system.mem_ctrls.rdPerTurnAround::mean      15.610341                       # Reads before turning the bus around for writes
system.mem_ctrls.rdPerTurnAround::gmean     15.444195                       # Reads before turning the bus around for writes
system.mem_ctrls.rdPerTurnAround::stdev      2.288208                       # Reads before turning the bus around for writes
system.mem_ctrls.rdPerTurnAround::0-3             382      0.06%      0.06% # Reads before turning the bus around for writes
system.mem_ctrls.rdPerTurnAround::4-7            5588      0.85%      0.91% # Reads before turning the bus around for writes
system.mem_ctrls.rdPerTurnAround::8-11          23947      3.66%      4.58% # Reads before turning the bus around for writes
system.mem_ctrls.rdPerTurnAround::12-15         67741     10.36%     14.93% # Reads before turning the bus around for writes
system.mem_ctrls.rdPerTurnAround::16-19        551079     84.27%     99.21% # Reads before turning the bus around for writes
system.mem_ctrls.rdPerTurnAround::20-23          1634      0.25%     99.46% # Reads before turning the bus around for writes
system.mem_ctrls.rdPerTurnAround::24-27          1633      0.25%     99.71% # Reads before turning the bus around for writes
system.mem_ctrls.rdPerTurnAround::28-31           754      0.12%     99.82% # Reads before turning the bus around for writes
system.mem_ctrls.rdPerTurnAround::32-35           499      0.08%     99.90% # Reads before turning the bus around for writes
system.mem_ctrls.rdPerTurnAround::36-39           214      0.03%     99.93% # Reads before turning the bus around for writes
system.mem_ctrls.rdPerTurnAround::40-43           118      0.02%     99.95% # Reads before turning the bus around for writes
system.mem_ctrls.rdPerTurnAround::44-47            60      0.01%     99.96% # Reads before turning the bus around for writes
system.mem_ctrls.rdPerTurnAround::48-51            54      0.01%     99.97% # Reads before turning the bus around for writes
system.mem_ctrls.rdPerTurnAround::52-55            48      0.01%     99.97% # Reads before turning the bus around for writes
system.mem_ctrls.rdPerTurnAround::56-59            31      0.00%     99.98% # Reads before turning the bus around for writes
system.mem_ctrls.rdPerTurnAround::60-63            14      0.00%     99.98% # Reads before turning the bus around for writes
system.mem_ctrls.rdPerTurnAround::64-67            16      0.00%     99.98% # Reads before turning the bus around for writes
system.mem_ctrls.rdPerTurnAround::68-71             8      0.00%     99.99% # Reads before turning the bus around for writes
system.mem_ctrls.rdPerTurnAround::72-75             6      0.00%     99.99% # Reads before turning the bus around for writes
system.mem_ctrls.rdPerTurnAround::76-79             7      0.00%     99.99% # Reads before turning the bus around for writes
system.mem_ctrls.rdPerTurnAround::80-83             8      0.00%     99.99% # Reads before turning the bus around for writes
system.mem_ctrls.rdPerTurnAround::84-87            14      0.00%     99.99% # Reads before turning the bus around for writes
system.mem_ctrls.rdPerTurnAround::88-91            12      0.00%     99.99% # Reads before turning the bus around for writes
system.mem_ctrls.rdPerTurnAround::92-95             7      0.00%     99.99% # Reads before turning the bus around for writes
system.mem_ctrls.rdPerTurnAround::96-99             6      0.00%     99.99% # Reads before turning the bus around for writes
system.mem_ctrls.rdPerTurnAround::100-103            5      0.00%     99.99% # Reads before turning the bus around for writes
system.mem_ctrls.rdPerTurnAround::104-107           11      0.00%    100.00% # Reads before turning the bus around for writes
system.mem_ctrls.rdPerTurnAround::108-111           16      0.00%    100.00% # Reads before turning the bus around for writes
system.mem_ctrls.rdPerTurnAround::112-115            4      0.00%    100.00% # Reads before turning the bus around for writes
system.mem_ctrls.rdPerTurnAround::116-119            1      0.00%    100.00% # Reads before turning the bus around for writes
system.mem_ctrls.rdPerTurnAround::120-123            1      0.00%    100.00% # Reads before turning the bus around for writes
system.mem_ctrls.rdPerTurnAround::total        653918                       # Reads before turning the bus around for writes
system.mem_ctrls.wrPerTurnAround::samples       653918                       # Writes before turning the bus around for reads
system.mem_ctrls.wrPerTurnAround::mean      16.063162                       # Writes before turning the bus around for reads
system.mem_ctrls.wrPerTurnAround::gmean     16.058950                       # Writes before turning the bus around for reads
system.mem_ctrls.wrPerTurnAround::stdev      0.386628                       # Writes before turning the bus around for reads
system.mem_ctrls.wrPerTurnAround::16           635202     97.14%     97.14% # Writes before turning the bus around for reads
system.mem_ctrls.wrPerTurnAround::17             1439      0.22%     97.36% # Writes before turning the bus around for reads
system.mem_ctrls.wrPerTurnAround::18            13297      2.03%     99.39% # Writes before turning the bus around for reads
system.mem_ctrls.wrPerTurnAround::19             2850      0.44%     99.83% # Writes before turning the bus around for reads
system.mem_ctrls.wrPerTurnAround::20              988      0.15%     99.98% # Writes before turning the bus around for reads
system.mem_ctrls.wrPerTurnAround::21              112      0.02%    100.00% # Writes before turning the bus around for reads
system.mem_ctrls.wrPerTurnAround::22               13      0.00%    100.00% # Writes before turning the bus around for reads
system.mem_ctrls.wrPerTurnAround::23                9      0.00%    100.00% # Writes before turning the bus around for reads
system.mem_ctrls.wrPerTurnAround::24                5      0.00%    100.00% # Writes before turning the bus around for reads
system.mem_ctrls.wrPerTurnAround::25                3      0.00%    100.00% # Writes before turning the bus around for reads
system.mem_ctrls.wrPerTurnAround::total        653918                       # Writes before turning the bus around for reads
system.mem_ctrls.totQLat                 218490821818                       # Total ticks spent queuing
system.mem_ctrls.totMemAccLat            409888778068                       # Total ticks spent from burst creation until serviced by the DRAM
system.mem_ctrls.totBusLat                51039455000                       # Total ticks spent in databus transfers
system.mem_ctrls.avgQLat                     21404.11                       # Average queueing delay per DRAM burst
system.mem_ctrls.avgBusLat                    5000.00                       # Average bus latency per DRAM burst
system.mem_ctrls.avgMemAccLat                40154.11                       # Average memory access latency per DRAM burst
system.mem_ctrls.avgRdBW                       394.92                       # Average DRAM read bandwidth in MiByte/s
system.mem_ctrls.avgWrBW                       406.38                       # Average achieved write bandwidth in MiByte/s
system.mem_ctrls.avgRdBWSys                    409.71                       # Average system read bandwidth in MiByte/s
system.mem_ctrls.avgWrBWSys                    409.71                       # Average system write bandwidth in MiByte/s
system.mem_ctrls.peakBW                      12800.00                       # Theoretical peak bandwidth in MiByte/s
system.mem_ctrls.busUtil                         6.26                       # Data bus utilization in percentage
system.mem_ctrls.busUtilRead                     3.09                       # Data bus utilization in percentage for reads
system.mem_ctrls.busUtilWrite                    3.17                       # Data bus utilization in percentage for writes
system.mem_ctrls.avgRdQLen                       1.00                       # Average read queue length when enqueuing
system.mem_ctrls.avgWrQLen                      25.65                       # Average write queue length when enqueuing
system.mem_ctrls.readRowHits                  5179166                       # Number of row buffer hits during reads
system.mem_ctrls.writeRowHits                 6956797                       # Number of row buffer hits during writes
system.mem_ctrls.readRowHitRate                 50.74                       # Row buffer hit rate for reads
system.mem_ctrls.writeRowHitRate                66.23                       # Row buffer hit rate for writes
system.mem_ctrls.avgGap                      78104.47                       # Average gap between requests
system.mem_ctrls.pageHitRate                    58.59                       # Row buffer hit rate, read and write combined
system.mem_ctrls_0.actEnergy              35653345560                       # Energy for activate commands per rank (pJ)
system.mem_ctrls_0.preEnergy              19453710375                       # Energy for precharge commands per rank (pJ)
system.mem_ctrls_0.readEnergy             44575252800                       # Energy for read commands per rank (pJ)
system.mem_ctrls_0.writeEnergy            38169707760                       # Energy for write commands per rank (pJ)
system.mem_ctrls_0.refreshEnergy         108707242800                       # Energy for refresh commands per rank (pJ)
system.mem_ctrls_0.actBackEnergy         776874080025                       # Energy for active background per rank (pJ)
system.mem_ctrls_0.preBackEnergy         317141586000                       # Energy for precharge background per rank (pJ)
system.mem_ctrls_0.totalEnergy           1340574925320                       # Total energy per rank (pJ)
system.mem_ctrls_0.averagePower            805.464489                       # Core power per rank (mW)
system.mem_ctrls_0.memoryStateTime::IDLE 519719874001                       # Time in different power states
system.mem_ctrls_0.memoryStateTime::REF   55239600000                       # Time in different power states
system.mem_ctrls_0.memoryStateTime::PRE_PDN            0                       # Time in different power states
system.mem_ctrls_0.memoryStateTime::ACT  1079309254499                       # Time in different power states
system.mem_ctrls_0.memoryStateTime::ACT_PDN            0                       # Time in different power states
system.mem_ctrls_1.actEnergy              29615770800                       # Energy for activate commands per rank (pJ)
system.mem_ctrls_1.preEnergy              16159398750                       # Energy for precharge commands per rank (pJ)
system.mem_ctrls_1.readEnergy             35689095000                       # Energy for read commands per rank (pJ)
system.mem_ctrls_1.writeEnergy            30447025200                       # Energy for write commands per rank (pJ)
system.mem_ctrls_1.refreshEnergy         108707242800                       # Energy for refresh commands per rank (pJ)
system.mem_ctrls_1.actBackEnergy         740164970520                       # Energy for active background per rank (pJ)
system.mem_ctrls_1.preBackEnergy         349342559250                       # Energy for precharge background per rank (pJ)
system.mem_ctrls_1.totalEnergy           1310126062320                       # Total energy per rank (pJ)
system.mem_ctrls_1.averagePower            787.169743                       # Core power per rank (mW)
system.mem_ctrls_1.memoryStateTime::IDLE 573106451503                       # Time in different power states
system.mem_ctrls_1.memoryStateTime::REF   55239600000                       # Time in different power states
system.mem_ctrls_1.memoryStateTime::PRE_PDN            0                       # Time in different power states
system.mem_ctrls_1.memoryStateTime::ACT  1025920623497                       # Time in different power states
system.mem_ctrls_1.memoryStateTime::ACT_PDN            0                       # Time in different power states
system.cpu_voltage_domain.voltage                   1                       # Voltage in Volts
system.cpu_clk_domain.clock                       500                       # Clock period in ticks
system.cpu0.apic_clk_domain.clock                8000                       # Clock period in ticks
system.cpu0.numCycles                      3312318117                       # number of cpu cycles simulated
system.cpu0.numWorkItemsStarted                     0                       # number of work items this cpu started
system.cpu0.numWorkItemsCompleted                   0                       # number of work items this cpu completed
system.cpu0.kern.inst.arm                           0                       # number of arm instructions executed
system.cpu0.kern.inst.quiesce                       0                       # number of quiesce instructions executed
system.cpu0.committedInsts                    1445033                       # Number of instructions committed
system.cpu0.committedOps                      3138600                       # Number of ops (including micro ops) committed
system.cpu0.num_int_alu_accesses              3070351                       # Number of integer alu accesses
system.cpu0.num_fp_alu_accesses                    39                       # Number of float alu accesses
system.cpu0.num_func_calls                      93972                       # number of times a function call or return occured
system.cpu0.num_conditional_control_insts       205067                       # number of instructions that are conditional controls
system.cpu0.num_int_insts                     3070351                       # number of integer instructions
system.cpu0.num_fp_insts                           39                       # number of float instructions
system.cpu0.num_int_register_reads            6253343                       # number of times the integer registers were read
system.cpu0.num_int_register_writes           2540182                       # number of times the integer registers were written
system.cpu0.num_fp_register_reads                  63                       # number of times the floating registers were read
system.cpu0.num_fp_register_writes                 31                       # number of times the floating registers were written
system.cpu0.num_cc_register_reads             1699790                       # number of times the CC registers were read
system.cpu0.num_cc_register_writes             929891                       # number of times the CC registers were written
system.cpu0.num_mem_refs                       743182                       # number of memory refs
system.cpu0.num_load_insts                     458561                       # Number of load instructions
system.cpu0.num_store_insts                    284621                       # Number of store instructions
system.cpu0.num_idle_cycles              3296648631.213621                       # Number of idle cycles
system.cpu0.num_busy_cycles              15669485.786379                       # Number of busy cycles
system.cpu0.not_idle_fraction                0.004731                       # Percentage of non-idle cycles
system.cpu0.idle_fraction                    0.995269                       # Percentage of idle cycles
system.cpu0.Branches                           327816                       # Number of branches fetched
system.cpu0.op_class::No_OpClass                52500      1.67%      1.67% # Class of executed instruction
system.cpu0.op_class::IntAlu                  2319804     73.91%     75.58% # Class of executed instruction
system.cpu0.op_class::IntMult                    5524      0.18%     75.76% # Class of executed instruction
system.cpu0.op_class::IntDiv                    17583      0.56%     76.32% # Class of executed instruction
system.cpu0.op_class::FloatAdd                     30      0.00%     76.32% # Class of executed instruction
system.cpu0.op_class::FloatCmp                      0      0.00%     76.32% # Class of executed instruction
system.cpu0.op_class::FloatCvt                      0      0.00%     76.32% # Class of executed instruction
system.cpu0.op_class::FloatMult                     0      0.00%     76.32% # Class of executed instruction
system.cpu0.op_class::FloatDiv                      0      0.00%     76.32% # Class of executed instruction
system.cpu0.op_class::FloatSqrt                     0      0.00%     76.32% # Class of executed instruction
system.cpu0.op_class::SimdAdd                       0      0.00%     76.32% # Class of executed instruction
system.cpu0.op_class::SimdAddAcc                    0      0.00%     76.32% # Class of executed instruction
system.cpu0.op_class::SimdAlu                       0      0.00%     76.32% # Class of executed instruction
system.cpu0.op_class::SimdCmp                       0      0.00%     76.32% # Class of executed instruction
system.cpu0.op_class::SimdCvt                       0      0.00%     76.32% # Class of executed instruction
system.cpu0.op_class::SimdMisc                      0      0.00%     76.32% # Class of executed instruction
system.cpu0.op_class::SimdMult                      0      0.00%     76.32% # Class of executed instruction
system.cpu0.op_class::SimdMultAcc                   0      0.00%     76.32% # Class of executed instruction
system.cpu0.op_class::SimdShift                     0      0.00%     76.32% # Class of executed instruction
system.cpu0.op_class::SimdShiftAcc                  0      0.00%     76.32% # Class of executed instruction
system.cpu0.op_class::SimdSqrt                      0      0.00%     76.32% # Class of executed instruction
system.cpu0.op_class::SimdFloatAdd                  0      0.00%     76.32% # Class of executed instruction
system.cpu0.op_class::SimdFloatAlu                  0      0.00%     76.32% # Class of executed instruction
system.cpu0.op_class::SimdFloatCmp                  0      0.00%     76.32% # Class of executed instruction
system.cpu0.op_class::SimdFloatCvt                  0      0.00%     76.32% # Class of executed instruction
system.cpu0.op_class::SimdFloatDiv                  0      0.00%     76.32% # Class of executed instruction
system.cpu0.op_class::SimdFloatMisc                 0      0.00%     76.32% # Class of executed instruction
system.cpu0.op_class::SimdFloatMult                 0      0.00%     76.32% # Class of executed instruction
system.cpu0.op_class::SimdFloatMultAcc              0      0.00%     76.32% # Class of executed instruction
system.cpu0.op_class::SimdFloatSqrt                 0      0.00%     76.32% # Class of executed instruction
system.cpu0.op_class::MemRead                  458561     14.61%     90.93% # Class of executed instruction
system.cpu0.op_class::MemWrite                 284621      9.07%    100.00% # Class of executed instruction
system.cpu0.op_class::IprAccess                     0      0.00%    100.00% # Class of executed instruction
system.cpu0.op_class::InstPrefetch                  0      0.00%    100.00% # Class of executed instruction
system.cpu0.op_class::total                   3138623                       # Class of executed instruction
system.cpu1.apic_clk_domain.clock                8000                       # Clock period in ticks
system.cpu1.numCycles                      3309659355                       # number of cpu cycles simulated
system.cpu1.numWorkItemsStarted                     0                       # number of work items this cpu started
system.cpu1.numWorkItemsCompleted                   0                       # number of work items this cpu completed
system.cpu1.kern.inst.arm                           0                       # number of arm instructions executed
system.cpu1.kern.inst.quiesce                       0                       # number of quiesce instructions executed
system.cpu1.committedInsts                  534025621                       # Number of instructions committed
system.cpu1.committedOps                    709540132                       # Number of ops (including micro ops) committed
system.cpu1.num_int_alu_accesses            509158595                       # Number of integer alu accesses
system.cpu1.num_fp_alu_accesses             331101068                       # Number of float alu accesses
system.cpu1.num_func_calls                     444265                       # number of times a function call or return occured
system.cpu1.num_conditional_control_insts     31487373                       # number of instructions that are conditional controls
system.cpu1.num_int_insts                   509158595                       # number of integer instructions
system.cpu1.num_fp_insts                    331101068                       # number of float instructions
system.cpu1.num_int_register_reads         1070844046                       # number of times the integer registers were read
system.cpu1.num_int_register_writes         340132176                       # number of times the integer registers were written
system.cpu1.num_fp_register_reads           564014582                       # number of times the floating registers were read
system.cpu1.num_fp_register_writes          276695748                       # number of times the floating registers were written
system.cpu1.num_cc_register_reads           220442587                       # number of times the CC registers were read
system.cpu1.num_cc_register_writes          241458167                       # number of times the CC registers were written
system.cpu1.num_mem_refs                    152936120                       # number of memory refs
system.cpu1.num_load_insts                   94823651                       # Number of load instructions
system.cpu1.num_store_insts                  58112469                       # Number of store instructions
system.cpu1.num_idle_cycles              15274963.129692                       # Number of idle cycles
system.cpu1.num_busy_cycles              3294384391.870307                       # Number of busy cycles
system.cpu1.not_idle_fraction                0.995385                       # Percentage of non-idle cycles
system.cpu1.idle_fraction                    0.004615                       # Percentage of idle cycles
system.cpu1.Branches                         33913559                       # Number of branches fetched
system.cpu1.op_class::No_OpClass               957332      0.13%      0.13% # Class of executed instruction
system.cpu1.op_class::IntAlu                444333095     62.62%     62.76% # Class of executed instruction
system.cpu1.op_class::IntMult                   26943      0.00%     62.76% # Class of executed instruction
system.cpu1.op_class::IntDiv                   145213      0.02%     62.78% # Class of executed instruction
system.cpu1.op_class::FloatAdd              111149730     15.66%     78.45% # Class of executed instruction
system.cpu1.op_class::FloatCmp                      0      0.00%     78.45% # Class of executed instruction
system.cpu1.op_class::FloatCvt                      0      0.00%     78.45% # Class of executed instruction
system.cpu1.op_class::FloatMult                     0      0.00%     78.45% # Class of executed instruction
system.cpu1.op_class::FloatDiv                      0      0.00%     78.45% # Class of executed instruction
system.cpu1.op_class::FloatSqrt                     0      0.00%     78.45% # Class of executed instruction
system.cpu1.op_class::SimdAdd                       0      0.00%     78.45% # Class of executed instruction
system.cpu1.op_class::SimdAddAcc                    0      0.00%     78.45% # Class of executed instruction
system.cpu1.op_class::SimdAlu                       0      0.00%     78.45% # Class of executed instruction
system.cpu1.op_class::SimdCmp                       0      0.00%     78.45% # Class of executed instruction
system.cpu1.op_class::SimdCvt                       0      0.00%     78.45% # Class of executed instruction
system.cpu1.op_class::SimdMisc                      0      0.00%     78.45% # Class of executed instruction
system.cpu1.op_class::SimdMult                      0      0.00%     78.45% # Class of executed instruction
system.cpu1.op_class::SimdMultAcc                   0      0.00%     78.45% # Class of executed instruction
system.cpu1.op_class::SimdShift                     0      0.00%     78.45% # Class of executed instruction
system.cpu1.op_class::SimdShiftAcc                  0      0.00%     78.45% # Class of executed instruction
system.cpu1.op_class::SimdSqrt                      0      0.00%     78.45% # Class of executed instruction
system.cpu1.op_class::SimdFloatAdd                  0      0.00%     78.45% # Class of executed instruction
system.cpu1.op_class::SimdFloatAlu                  0      0.00%     78.45% # Class of executed instruction
system.cpu1.op_class::SimdFloatCmp                  0      0.00%     78.45% # Class of executed instruction
system.cpu1.op_class::SimdFloatCvt                  0      0.00%     78.45% # Class of executed instruction
system.cpu1.op_class::SimdFloatDiv                  0      0.00%     78.45% # Class of executed instruction
system.cpu1.op_class::SimdFloatMisc                 0      0.00%     78.45% # Class of executed instruction
system.cpu1.op_class::SimdFloatMult                 0      0.00%     78.45% # Class of executed instruction
system.cpu1.op_class::SimdFloatMultAcc              0      0.00%     78.45% # Class of executed instruction
system.cpu1.op_class::SimdFloatSqrt                 0      0.00%     78.45% # Class of executed instruction
system.cpu1.op_class::MemRead                94823651     13.36%     91.81% # Class of executed instruction
system.cpu1.op_class::MemWrite               58112469      8.19%    100.00% # Class of executed instruction
system.cpu1.op_class::IprAccess                     0      0.00%    100.00% # Class of executed instruction
system.cpu1.op_class::InstPrefetch                  0      0.00%    100.00% # Class of executed instruction
system.cpu1.op_class::total                 709548433                       # Class of executed instruction
system.cpu2.apic_clk_domain.clock                8000                       # Clock period in ticks
system.cpu2.numCycles                      3303271210                       # number of cpu cycles simulated
system.cpu2.numWorkItemsStarted                     0                       # number of work items this cpu started
system.cpu2.numWorkItemsCompleted                   0                       # number of work items this cpu completed
system.cpu2.kern.inst.arm                           0                       # number of arm instructions executed
system.cpu2.kern.inst.quiesce                       0                       # number of quiesce instructions executed
system.cpu2.committedInsts                    1210680                       # Number of instructions committed
system.cpu2.committedOps                      2612128                       # Number of ops (including micro ops) committed
system.cpu2.num_int_alu_accesses              2550346                       # Number of integer alu accesses
system.cpu2.num_fp_alu_accesses                     0                       # Number of float alu accesses
system.cpu2.num_func_calls                      70925                       # number of times a function call or return occured
system.cpu2.num_conditional_control_insts       187290                       # number of instructions that are conditional controls
system.cpu2.num_int_insts                     2550346                       # number of integer instructions
system.cpu2.num_fp_insts                            0                       # number of float instructions
system.cpu2.num_int_register_reads            5179258                       # number of times the integer registers were read
system.cpu2.num_int_register_writes           2118032                       # number of times the integer registers were written
system.cpu2.num_fp_register_reads                   0                       # number of times the floating registers were read
system.cpu2.num_fp_register_writes                  0                       # number of times the floating registers were written
system.cpu2.num_cc_register_reads             1484273                       # number of times the CC registers were read
system.cpu2.num_cc_register_writes             771451                       # number of times the CC registers were written
system.cpu2.num_mem_refs                       616266                       # number of memory refs
system.cpu2.num_load_insts                     385251                       # Number of load instructions
system.cpu2.num_store_insts                    231015                       # Number of store instructions
system.cpu2.num_idle_cycles              3287154268.865622                       # Number of idle cycles
system.cpu2.num_busy_cycles              16116941.134378                       # Number of busy cycles
system.cpu2.not_idle_fraction                0.004879                       # Percentage of non-idle cycles
system.cpu2.idle_fraction                    0.995121                       # Percentage of idle cycles
system.cpu2.Branches                           281498                       # Number of branches fetched
system.cpu2.op_class::No_OpClass                49194      1.88%      1.88% # Class of executed instruction
system.cpu2.op_class::IntAlu                  1924011     73.66%     75.54% # Class of executed instruction
system.cpu2.op_class::IntMult                    5034      0.19%     75.73% # Class of executed instruction
system.cpu2.op_class::IntDiv                    17626      0.67%     76.41% # Class of executed instruction
system.cpu2.op_class::FloatAdd                      0      0.00%     76.41% # Class of executed instruction
system.cpu2.op_class::FloatCmp                      0      0.00%     76.41% # Class of executed instruction
system.cpu2.op_class::FloatCvt                      0      0.00%     76.41% # Class of executed instruction
system.cpu2.op_class::FloatMult                     0      0.00%     76.41% # Class of executed instruction
system.cpu2.op_class::FloatDiv                      0      0.00%     76.41% # Class of executed instruction
system.cpu2.op_class::FloatSqrt                     0      0.00%     76.41% # Class of executed instruction
system.cpu2.op_class::SimdAdd                       0      0.00%     76.41% # Class of executed instruction
system.cpu2.op_class::SimdAddAcc                    0      0.00%     76.41% # Class of executed instruction
system.cpu2.op_class::SimdAlu                       0      0.00%     76.41% # Class of executed instruction
system.cpu2.op_class::SimdCmp                       0      0.00%     76.41% # Class of executed instruction
system.cpu2.op_class::SimdCvt                       0      0.00%     76.41% # Class of executed instruction
system.cpu2.op_class::SimdMisc                      0      0.00%     76.41% # Class of executed instruction
system.cpu2.op_class::SimdMult                      0      0.00%     76.41% # Class of executed instruction
system.cpu2.op_class::SimdMultAcc                   0      0.00%     76.41% # Class of executed instruction
system.cpu2.op_class::SimdShift                     0      0.00%     76.41% # Class of executed instruction
system.cpu2.op_class::SimdShiftAcc                  0      0.00%     76.41% # Class of executed instruction
system.cpu2.op_class::SimdSqrt                      0      0.00%     76.41% # Class of executed instruction
system.cpu2.op_class::SimdFloatAdd                  0      0.00%     76.41% # Class of executed instruction
system.cpu2.op_class::SimdFloatAlu                  0      0.00%     76.41% # Class of executed instruction
system.cpu2.op_class::SimdFloatCmp                  0      0.00%     76.41% # Class of executed instruction
system.cpu2.op_class::SimdFloatCvt                  0      0.00%     76.41% # Class of executed instruction
system.cpu2.op_class::SimdFloatDiv                  0      0.00%     76.41% # Class of executed instruction
system.cpu2.op_class::SimdFloatMisc                 0      0.00%     76.41% # Class of executed instruction
system.cpu2.op_class::SimdFloatMult                 0      0.00%     76.41% # Class of executed instruction
system.cpu2.op_class::SimdFloatMultAcc              0      0.00%     76.41% # Class of executed instruction
system.cpu2.op_class::SimdFloatSqrt                 0      0.00%     76.41% # Class of executed instruction
system.cpu2.op_class::MemRead                  385251     14.75%     91.16% # Class of executed instruction
system.cpu2.op_class::MemWrite                 231015      8.84%    100.00% # Class of executed instruction
system.cpu2.op_class::IprAccess                     0      0.00%    100.00% # Class of executed instruction
system.cpu2.op_class::InstPrefetch                  0      0.00%    100.00% # Class of executed instruction
system.cpu2.op_class::total                   2612131                       # Class of executed instruction
system.cpu3.apic_clk_domain.clock                8000                       # Clock period in ticks
system.cpu3.numCycles                      3304999646                       # number of cpu cycles simulated
system.cpu3.numWorkItemsStarted                     0                       # number of work items this cpu started
system.cpu3.numWorkItemsCompleted                   0                       # number of work items this cpu completed
system.cpu3.kern.inst.arm                           0                       # number of arm instructions executed
system.cpu3.kern.inst.quiesce                       0                       # number of quiesce instructions executed
system.cpu3.committedInsts                    3220804                       # Number of instructions committed
system.cpu3.committedOps                      6451826                       # Number of ops (including micro ops) committed
system.cpu3.num_int_alu_accesses              6336122                       # Number of integer alu accesses
system.cpu3.num_fp_alu_accesses                  1826                       # Number of float alu accesses
system.cpu3.num_func_calls                     166100                       # number of times a function call or return occured
system.cpu3.num_conditional_control_insts       538107                       # number of instructions that are conditional controls
system.cpu3.num_int_insts                     6336122                       # number of integer instructions
system.cpu3.num_fp_insts                         1826                       # number of float instructions
system.cpu3.num_int_register_reads           12640342                       # number of times the integer registers were read
system.cpu3.num_int_register_writes           5160815                       # number of times the integer registers were written
system.cpu3.num_fp_register_reads                3068                       # number of times the floating registers were read
system.cpu3.num_fp_register_writes               1448                       # number of times the floating registers were written
system.cpu3.num_cc_register_reads             4030617                       # number of times the CC registers were read
system.cpu3.num_cc_register_writes            2180032                       # number of times the CC registers were written
system.cpu3.num_mem_refs                      1463802                       # number of memory refs
system.cpu3.num_load_insts                     944338                       # Number of load instructions
system.cpu3.num_store_insts                    519464                       # Number of store instructions
system.cpu3.num_idle_cycles              3278307289.653842                       # Number of idle cycles
system.cpu3.num_busy_cycles              26692356.346158                       # Number of busy cycles
system.cpu3.not_idle_fraction                0.008076                       # Percentage of non-idle cycles
system.cpu3.idle_fraction                    0.991924                       # Percentage of idle cycles
system.cpu3.Branches                           737030                       # Number of branches fetched
system.cpu3.op_class::No_OpClass                51124      0.79%      0.79% # Class of executed instruction
system.cpu3.op_class::IntAlu                  4912541     76.14%     76.93% # Class of executed instruction
system.cpu3.op_class::IntMult                    5978      0.09%     77.03% # Class of executed instruction
system.cpu3.op_class::IntDiv                    17096      0.26%     77.29% # Class of executed instruction
system.cpu3.op_class::FloatAdd                   1376      0.02%     77.31% # Class of executed instruction
system.cpu3.op_class::FloatCmp                      0      0.00%     77.31% # Class of executed instruction
system.cpu3.op_class::FloatCvt                      0      0.00%     77.31% # Class of executed instruction
system.cpu3.op_class::FloatMult                     0      0.00%     77.31% # Class of executed instruction
system.cpu3.op_class::FloatDiv                      0      0.00%     77.31% # Class of executed instruction
system.cpu3.op_class::FloatSqrt                     0      0.00%     77.31% # Class of executed instruction
system.cpu3.op_class::SimdAdd                       0      0.00%     77.31% # Class of executed instruction
system.cpu3.op_class::SimdAddAcc                    0      0.00%     77.31% # Class of executed instruction
system.cpu3.op_class::SimdAlu                       0      0.00%     77.31% # Class of executed instruction
system.cpu3.op_class::SimdCmp                       0      0.00%     77.31% # Class of executed instruction
system.cpu3.op_class::SimdCvt                       0      0.00%     77.31% # Class of executed instruction
system.cpu3.op_class::SimdMisc                      0      0.00%     77.31% # Class of executed instruction
system.cpu3.op_class::SimdMult                      0      0.00%     77.31% # Class of executed instruction
system.cpu3.op_class::SimdMultAcc                   0      0.00%     77.31% # Class of executed instruction
system.cpu3.op_class::SimdShift                     0      0.00%     77.31% # Class of executed instruction
system.cpu3.op_class::SimdShiftAcc                  0      0.00%     77.31% # Class of executed instruction
system.cpu3.op_class::SimdSqrt                      0      0.00%     77.31% # Class of executed instruction
system.cpu3.op_class::SimdFloatAdd                  0      0.00%     77.31% # Class of executed instruction
system.cpu3.op_class::SimdFloatAlu                  0      0.00%     77.31% # Class of executed instruction
system.cpu3.op_class::SimdFloatCmp                  0      0.00%     77.31% # Class of executed instruction
system.cpu3.op_class::SimdFloatCvt                  0      0.00%     77.31% # Class of executed instruction
system.cpu3.op_class::SimdFloatDiv                  0      0.00%     77.31% # Class of executed instruction
system.cpu3.op_class::SimdFloatMisc                 0      0.00%     77.31% # Class of executed instruction
system.cpu3.op_class::SimdFloatMult                 0      0.00%     77.31% # Class of executed instruction
system.cpu3.op_class::SimdFloatMultAcc              0      0.00%     77.31% # Class of executed instruction
system.cpu3.op_class::SimdFloatSqrt                 0      0.00%     77.31% # Class of executed instruction
system.cpu3.op_class::MemRead                  944338     14.64%     91.95% # Class of executed instruction
system.cpu3.op_class::MemWrite                 519464      8.05%    100.00% # Class of executed instruction
system.cpu3.op_class::IprAccess                     0      0.00%    100.00% # Class of executed instruction
system.cpu3.op_class::InstPrefetch                  0      0.00%    100.00% # Class of executed instruction
system.cpu3.op_class::total                   6451917                       # Class of executed instruction
system.iobus.trans_dist::ReadReq                  706                       # Transaction distribution
system.iobus.trans_dist::ReadResp                 706                       # Transaction distribution
system.iobus.trans_dist::WriteReq                1917                       # Transaction distribution
system.iobus.trans_dist::WriteResp               1917                       # Transaction distribution
system.iobus.trans_dist::MessageReq                10                       # Transaction distribution
system.iobus.trans_dist::MessageResp               10                       # Transaction distribution
system.iobus.pkt_count_system.pc.south_bridge.io_apic.int_master::system.ruby.l1_cntrl0.sequencer.pio-slave-port            2                       # Packet count per connected master and slave (bytes)
system.iobus.pkt_count_system.pc.south_bridge.io_apic.int_master::system.ruby.l1_cntrl1.sequencer.pio-slave-port            2                       # Packet count per connected master and slave (bytes)
system.iobus.pkt_count_system.pc.south_bridge.io_apic.int_master::total            4                       # Packet count per connected master and slave (bytes)
system.iobus.pkt_count_system.ruby.l1_cntrl0.sequencer.mem-master-port::system.pc.south_bridge.io_apic.pio            6                       # Packet count per connected master and slave (bytes)
system.iobus.pkt_count_system.ruby.l1_cntrl0.sequencer.mem-master-port::system.pc.com_1.pio         1854                       # Packet count per connected master and slave (bytes)
system.iobus.pkt_count_system.ruby.l1_cntrl0.sequencer.mem-master-port::system.ruby.l1_cntrl0.sequencer.pio-slave-port          840                       # Packet count per connected master and slave (bytes)
system.iobus.pkt_count_system.ruby.l1_cntrl0.sequencer.mem-master-port::system.ruby.l1_cntrl1.sequencer.pio-slave-port            2                       # Packet count per connected master and slave (bytes)
system.iobus.pkt_count_system.ruby.l1_cntrl0.sequencer.mem-master-port::total         2702                       # Packet count per connected master and slave (bytes)
system.iobus.pkt_count_system.ruby.l1_cntrl1.sequencer.mem-master-port::system.pc.south_bridge.io_apic.pio            8                       # Packet count per connected master and slave (bytes)
system.iobus.pkt_count_system.ruby.l1_cntrl1.sequencer.mem-master-port::system.ruby.l1_cntrl0.sequencer.pio-slave-port            2                       # Packet count per connected master and slave (bytes)
system.iobus.pkt_count_system.ruby.l1_cntrl1.sequencer.mem-master-port::system.ruby.l1_cntrl1.sequencer.pio-slave-port          850                       # Packet count per connected master and slave (bytes)
system.iobus.pkt_count_system.ruby.l1_cntrl1.sequencer.mem-master-port::system.ruby.l1_cntrl2.sequencer.pio-slave-port            4                       # Packet count per connected master and slave (bytes)
system.iobus.pkt_count_system.ruby.l1_cntrl1.sequencer.mem-master-port::total          864                       # Packet count per connected master and slave (bytes)
system.iobus.pkt_count_system.ruby.l1_cntrl2.sequencer.mem-master-port::system.pc.com_1.pio            2                       # Packet count per connected master and slave (bytes)
system.iobus.pkt_count_system.ruby.l1_cntrl2.sequencer.mem-master-port::system.ruby.l1_cntrl2.sequencer.pio-slave-port          838                       # Packet count per connected master and slave (bytes)
system.iobus.pkt_count_system.ruby.l1_cntrl2.sequencer.mem-master-port::system.ruby.l1_cntrl3.sequencer.pio-slave-port            2                       # Packet count per connected master and slave (bytes)
system.iobus.pkt_count_system.ruby.l1_cntrl2.sequencer.mem-master-port::total          842                       # Packet count per connected master and slave (bytes)
system.iobus.pkt_count_system.ruby.l1_cntrl3.sequencer.mem-master-port::system.ruby.l1_cntrl0.sequencer.pio-slave-port            2                       # Packet count per connected master and slave (bytes)
system.iobus.pkt_count_system.ruby.l1_cntrl3.sequencer.mem-master-port::system.ruby.l1_cntrl1.sequencer.pio-slave-port            2                       # Packet count per connected master and slave (bytes)
system.iobus.pkt_count_system.ruby.l1_cntrl3.sequencer.mem-master-port::system.ruby.l1_cntrl2.sequencer.pio-slave-port            2                       # Packet count per connected master and slave (bytes)
system.iobus.pkt_count_system.ruby.l1_cntrl3.sequencer.mem-master-port::system.ruby.l1_cntrl3.sequencer.pio-slave-port          848                       # Packet count per connected master and slave (bytes)
system.iobus.pkt_count_system.ruby.l1_cntrl3.sequencer.mem-master-port::total          854                       # Packet count per connected master and slave (bytes)
system.iobus.pkt_count::total                    5266                       # Packet count per connected master and slave (bytes)
system.iobus.pkt_size_system.pc.south_bridge.io_apic.int_master::system.ruby.l1_cntrl0.sequencer.pio-slave-port            4                       # Cumulative packet size per connected master and slave (bytes)
system.iobus.pkt_size_system.pc.south_bridge.io_apic.int_master::system.ruby.l1_cntrl1.sequencer.pio-slave-port            4                       # Cumulative packet size per connected master and slave (bytes)
system.iobus.pkt_size_system.pc.south_bridge.io_apic.int_master::total            8                       # Cumulative packet size per connected master and slave (bytes)
system.iobus.pkt_size_system.ruby.l1_cntrl0.sequencer.mem-master-port::system.pc.south_bridge.io_apic.pio           12                       # Cumulative packet size per connected master and slave (bytes)
system.iobus.pkt_size_system.ruby.l1_cntrl0.sequencer.mem-master-port::system.pc.com_1.pio          927                       # Cumulative packet size per connected master and slave (bytes)
system.iobus.pkt_size_system.ruby.l1_cntrl0.sequencer.mem-master-port::system.ruby.l1_cntrl0.sequencer.pio-slave-port         1680                       # Cumulative packet size per connected master and slave (bytes)
system.iobus.pkt_size_system.ruby.l1_cntrl0.sequencer.mem-master-port::system.ruby.l1_cntrl1.sequencer.pio-slave-port            4                       # Cumulative packet size per connected master and slave (bytes)
system.iobus.pkt_size_system.ruby.l1_cntrl0.sequencer.mem-master-port::total         2623                       # Cumulative packet size per connected master and slave (bytes)
system.iobus.pkt_size_system.ruby.l1_cntrl1.sequencer.mem-master-port::system.pc.south_bridge.io_apic.pio           16                       # Cumulative packet size per connected master and slave (bytes)
system.iobus.pkt_size_system.ruby.l1_cntrl1.sequencer.mem-master-port::system.ruby.l1_cntrl0.sequencer.pio-slave-port            4                       # Cumulative packet size per connected master and slave (bytes)
system.iobus.pkt_size_system.ruby.l1_cntrl1.sequencer.mem-master-port::system.ruby.l1_cntrl1.sequencer.pio-slave-port         1700                       # Cumulative packet size per connected master and slave (bytes)
system.iobus.pkt_size_system.ruby.l1_cntrl1.sequencer.mem-master-port::system.ruby.l1_cntrl2.sequencer.pio-slave-port            8                       # Cumulative packet size per connected master and slave (bytes)
system.iobus.pkt_size_system.ruby.l1_cntrl1.sequencer.mem-master-port::total         1728                       # Cumulative packet size per connected master and slave (bytes)
system.iobus.pkt_size_system.ruby.l1_cntrl2.sequencer.mem-master-port::system.pc.com_1.pio            1                       # Cumulative packet size per connected master and slave (bytes)
system.iobus.pkt_size_system.ruby.l1_cntrl2.sequencer.mem-master-port::system.ruby.l1_cntrl2.sequencer.pio-slave-port         1676                       # Cumulative packet size per connected master and slave (bytes)
system.iobus.pkt_size_system.ruby.l1_cntrl2.sequencer.mem-master-port::system.ruby.l1_cntrl3.sequencer.pio-slave-port            4                       # Cumulative packet size per connected master and slave (bytes)
system.iobus.pkt_size_system.ruby.l1_cntrl2.sequencer.mem-master-port::total         1681                       # Cumulative packet size per connected master and slave (bytes)
system.iobus.pkt_size_system.ruby.l1_cntrl3.sequencer.mem-master-port::system.ruby.l1_cntrl0.sequencer.pio-slave-port            4                       # Cumulative packet size per connected master and slave (bytes)
system.iobus.pkt_size_system.ruby.l1_cntrl3.sequencer.mem-master-port::system.ruby.l1_cntrl1.sequencer.pio-slave-port            4                       # Cumulative packet size per connected master and slave (bytes)
system.iobus.pkt_size_system.ruby.l1_cntrl3.sequencer.mem-master-port::system.ruby.l1_cntrl2.sequencer.pio-slave-port            4                       # Cumulative packet size per connected master and slave (bytes)
system.iobus.pkt_size_system.ruby.l1_cntrl3.sequencer.mem-master-port::system.ruby.l1_cntrl3.sequencer.pio-slave-port         1696                       # Cumulative packet size per connected master and slave (bytes)
system.iobus.pkt_size_system.ruby.l1_cntrl3.sequencer.mem-master-port::total         1708                       # Cumulative packet size per connected master and slave (bytes)
system.iobus.pkt_size::total                     7748                       # Cumulative packet size per connected master and slave (bytes)
system.iobus.reqLayer8.occupancy                13498                       # Layer occupancy (ticks)
system.iobus.reqLayer8.utilization                0.0                       # Layer utilization (%)
system.iobus.reqLayer12.occupancy             1174500                       # Layer occupancy (ticks)
system.iobus.reqLayer12.utilization               0.0                       # Layer utilization (%)
system.iobus.reqLayer17.occupancy              988999                       # Layer occupancy (ticks)
system.iobus.reqLayer17.utilization               0.0                       # Layer utilization (%)
system.iobus.reqLayer18.occupancy             1118682                       # Layer occupancy (ticks)
system.iobus.reqLayer18.utilization               0.0                       # Layer utilization (%)
system.iobus.reqLayer19.occupancy              910000                       # Layer occupancy (ticks)
system.iobus.reqLayer19.utilization               0.0                       # Layer utilization (%)
system.iobus.reqLayer20.occupancy              994998                       # Layer occupancy (ticks)
system.iobus.reqLayer20.utilization               0.0                       # Layer utilization (%)
system.iobus.respLayer0.occupancy                2000                       # Layer occupancy (ticks)
system.iobus.respLayer0.utilization               0.0                       # Layer utilization (%)
system.iobus.respLayer2.occupancy             2258000                       # Layer occupancy (ticks)
system.iobus.respLayer2.utilization               0.0                       # Layer utilization (%)
system.iobus.respLayer4.occupancy              650500                       # Layer occupancy (ticks)
system.iobus.respLayer4.utilization               0.0                       # Layer utilization (%)
system.iobus.respLayer6.occupancy              631500                       # Layer occupancy (ticks)
system.iobus.respLayer6.utilization               0.0                       # Layer utilization (%)
system.iobus.respLayer8.occupancy              643000                       # Layer occupancy (ticks)
system.iobus.respLayer8.utilization               0.0                       # Layer utilization (%)
system.pc.south_bridge.ide.disks.dma_read_full_pages            0                       # Number of full page size DMA reads (not PRD).
system.pc.south_bridge.ide.disks.dma_read_bytes            0                       # Number of bytes transfered via DMA reads (not PRD).
system.pc.south_bridge.ide.disks.dma_read_txs            0                       # Number of DMA read transactions (not PRD).
system.pc.south_bridge.ide.disks.dma_write_full_pages            0                       # Number of full page size DMA writes.
system.pc.south_bridge.ide.disks.dma_write_bytes            0                       # Number of bytes transfered via DMA writes.
system.pc.south_bridge.ide.disks.dma_write_txs            0                       # Number of DMA write transactions.
system.ruby.clk_domain.clock                      500                       # Clock period in ticks
system.ruby.delayHist::bucket_size                  2                       # delay histogram for all message
system.ruby.delayHist::max_bucket                  19                       # delay histogram for all message
system.ruby.delayHist::samples               21697867                       # delay histogram for all message
system.ruby.delayHist::mean                  0.006852                       # delay histogram for all message
system.ruby.delayHist::stdev                 0.236721                       # delay histogram for all message
system.ruby.delayHist                    |    21677169     99.90%     99.90% |        1581      0.01%     99.91% |        1592      0.01%     99.92% |        4284      0.02%     99.94% |       12214      0.06%    100.00% |         138      0.00%    100.00% |         121      0.00%    100.00% |         110      0.00%    100.00% |         247      0.00%    100.00% |         411      0.00%    100.00% # delay histogram for all message
system.ruby.delayHist::total                 21697867                       # delay histogram for all message
system.ruby.outstanding_req_hist_seqr::bucket_size            1                      
system.ruby.outstanding_req_hist_seqr::max_bucket            9                      
system.ruby.outstanding_req_hist_seqr::samples    938719807                      
system.ruby.outstanding_req_hist_seqr::mean     1.000000                      
system.ruby.outstanding_req_hist_seqr::gmean     1.000000                      
system.ruby.outstanding_req_hist_seqr::stdev     0.000505                      
system.ruby.outstanding_req_hist_seqr    |           0      0.00%      0.00% |   938719568    100.00%    100.00% |         239      0.00%    100.00% |           0      0.00%    100.00% |           0      0.00%    100.00% |           0      0.00%    100.00% |           0      0.00%    100.00% |           0      0.00%    100.00% |           0      0.00%    100.00% |           0      0.00%    100.00%
system.ruby.outstanding_req_hist_seqr::total    938719807                      
system.ruby.latency_hist_seqr::bucket_size          256                      
system.ruby.latency_hist_seqr::max_bucket         2559                      
system.ruby.latency_hist_seqr::samples      938719808                      
system.ruby.latency_hist_seqr::mean          2.569975                      
system.ruby.latency_hist_seqr::gmean         1.057110                      
system.ruby.latency_hist_seqr::stdev        17.122517                      
system.ruby.latency_hist_seqr            |   937943811     99.92%     99.92% |      649970      0.07%     99.99% |      119024      0.01%    100.00% |        5050      0.00%    100.00% |        1912      0.00%    100.00% |          34      0.00%    100.00% |           6      0.00%    100.00% |           1      0.00%    100.00% |           0      0.00%    100.00% |           0      0.00%    100.00%
system.ruby.latency_hist_seqr::total        938719808                      
system.ruby.hit_latency_hist_seqr::bucket_size            1                      
system.ruby.hit_latency_hist_seqr::max_bucket            9                      
system.ruby.hit_latency_hist_seqr::samples    927870856                      
system.ruby.hit_latency_hist_seqr::mean             1                      
[...]
system.ruby.LD.Directory.miss_type_mach_latency_hist_seqr::gmean   117.485994                      
system.ruby.LD.Directory.miss_type_mach_latency_hist_seqr::stdev    87.464622                      
system.ruby.LD.Directory.miss_type_mach_latency_hist_seqr |    12126936     92.43%     92.43% |      832225      6.34%     98.77% |      153493      1.17%     99.94% |        5401      0.04%     99.98% |        2686      0.02%    100.00% |          16      0.00%    100.00% |           2      0.00%    100.00% |           0      0.00%    100.00% |           0      0.00%    100.00% |           0      0.00%    100.00%
system.ruby.LD.Directory.miss_type_mach_latency_hist_seqr::total     13120759                      
system.ruby.ST.L1Cache.miss_type_mach_latency_hist_seqr::bucket_size            8                      
system.ruby.ST.L1Cache.miss_type_mach_latency_hist_seqr::max_bucket           79                      
system.ruby.ST.L1Cache.miss_type_mach_latency_hist_seqr::samples         1146                      
system.ruby.ST.L1Cache.miss_type_mach_latency_hist_seqr::mean    48.761780                      
system.ruby.ST.L1Cache.miss_type_mach_latency_hist_seqr::gmean    48.738099                      
system.ruby.ST.L1Cache.miss_type_mach_latency_hist_seqr::stdev     1.517285                      
system.ruby.ST.L1Cache.miss_type_mach_latency_hist_seqr |           0      0.00%      0.00% |           0      0.00%      0.00% |           0      0.00%      0.00% |           0      0.00%      0.00% |           0      0.00%      0.00% |         113      9.86%      9.86% |        1027     89.62%     99.48% |           6      0.52%    100.00% |           0      0.00%    100.00% |           0      0.00%    100.00%
system.ruby.ST.L1Cache.miss_type_mach_latency_hist_seqr::total         1146                      
system.ruby.ST.Directory.miss_type_mach_latency_hist_seqr::bucket_size          256                      
system.ruby.ST.Directory.miss_type_mach_latency_hist_seqr::max_bucket         2559                      
system.ruby.ST.Directory.miss_type_mach_latency_hist_seqr::samples      7047684                      
system.ruby.ST.Directory.miss_type_mach_latency_hist_seqr::mean   154.798787                      
system.ruby.ST.Directory.miss_type_mach_latency_hist_seqr::gmean   144.596887                      
system.ruby.ST.Directory.miss_type_mach_latency_hist_seqr::stdev    75.469492                      
system.ruby.ST.Directory.miss_type_mach_latency_hist_seqr |     6546169     92.88%     92.88% |      421889      5.99%     98.87% |       74409      1.06%     99.93% |        4178      0.06%     99.99% |         983      0.01%    100.00% |          44      0.00%    100.00% |          10      0.00%    100.00% |           2      0.00%    100.00% |           0      0.00%    100.00% |           0      0.00%    100.00%
system.ruby.ST.Directory.miss_type_mach_latency_hist_seqr::total      7047684                      
system.ruby.IFETCH.L1Cache.miss_type_mach_latency_hist_seqr::bucket_size           32                      
system.ruby.IFETCH.L1Cache.miss_type_mach_latency_hist_seqr::max_bucket          319                      
system.ruby.IFETCH.L1Cache.miss_type_mach_latency_hist_seqr::samples       504464                      
system.ruby.IFETCH.L1Cache.miss_type_mach_latency_hist_seqr::mean    46.357534                      
system.ruby.IFETCH.L1Cache.miss_type_mach_latency_hist_seqr::gmean    46.313946                      
system.ruby.IFETCH.L1Cache.miss_type_mach_latency_hist_seqr::stdev     2.152611                      
system.ruby.IFETCH.L1Cache.miss_type_mach_latency_hist_seqr |           0      0.00%      0.00% |      504426     99.99%     99.99% |          12      0.00%     99.99% |          10      0.00%    100.00% |           5      0.00%    100.00% |           6      0.00%    100.00% |           1      0.00%    100.00% |           4      0.00%    100.00% |           0      0.00%    100.00% |           0      0.00%    100.00%
system.ruby.IFETCH.L1Cache.miss_type_mach_latency_hist_seqr::total       504464                      
system.ruby.IFETCH.Directory.miss_type_mach_latency_hist_seqr::bucket_size          256                      
system.ruby.IFETCH.Directory.miss_type_mach_latency_hist_seqr::max_bucket         2559                      
system.ruby.IFETCH.Directory.miss_type_mach_latency_hist_seqr::samples      1196952                      
system.ruby.IFETCH.Directory.miss_type_mach_latency_hist_seqr::mean   121.620890                      
system.ruby.IFETCH.Directory.miss_type_mach_latency_hist_seqr::gmean   104.654112                      
system.ruby.IFETCH.Directory.miss_type_mach_latency_hist_seqr::stdev    82.930640                      
system.ruby.IFETCH.Directory.miss_type_mach_latency_hist_seqr |     1125487     94.03%     94.03% |       58934      4.92%     98.95% |       11730      0.98%     99.93% |         645      0.05%     99.99% |         148      0.01%    100.00% |           8      0.00%    100.00% |           0      0.00%    100.00% |           0      0.00%    100.00% |           0      0.00%    100.00% |           0      0.00%    100.00%
system.ruby.IFETCH.Directory.miss_type_mach_latency_hist_seqr::total      1196952                      
system.ruby.RMW_Read.L1Cache.miss_type_mach_latency_hist_seqr::bucket_size            8                      
system.ruby.RMW_Read.L1Cache.miss_type_mach_latency_hist_seqr::max_bucket           79                      
system.ruby.RMW_Read.L1Cache.miss_type_mach_latency_hist_seqr::samples         1673                      
system.ruby.RMW_Read.L1Cache.miss_type_mach_latency_hist_seqr::mean    45.473401                      
system.ruby.RMW_Read.L1Cache.miss_type_mach_latency_hist_seqr::gmean    45.436468                      
system.ruby.RMW_Read.L1Cache.miss_type_mach_latency_hist_seqr::stdev     1.987561                      
system.ruby.RMW_Read.L1Cache.miss_type_mach_latency_hist_seqr |           0      0.00%      0.00% |           0      0.00%      0.00% |           0      0.00%      0.00% |           0      0.00%      0.00% |           0      0.00%      0.00% |        1542     92.17%     92.17% |         111      6.63%     98.80% |          17      1.02%     99.82% |           3      0.18%    100.00% |           0      0.00%    100.00%
system.ruby.RMW_Read.L1Cache.miss_type_mach_latency_hist_seqr::total         1673                      
system.ruby.RMW_Read.Directory.miss_type_mach_latency_hist_seqr::bucket_size          128                      
system.ruby.RMW_Read.Directory.miss_type_mach_latency_hist_seqr::max_bucket         1279                      
system.ruby.RMW_Read.Directory.miss_type_mach_latency_hist_seqr::samples        60944                      
system.ruby.RMW_Read.Directory.miss_type_mach_latency_hist_seqr::mean   144.129841                      
system.ruby.RMW_Read.Directory.miss_type_mach_latency_hist_seqr::gmean   128.135408                      
system.ruby.RMW_Read.Directory.miss_type_mach_latency_hist_seqr::stdev    80.862464                      
system.ruby.RMW_Read.Directory.miss_type_mach_latency_hist_seqr |       29236     47.97%     47.97% |       27809     45.63%     93.60% |        2486      4.08%     97.68% |         728      1.19%     98.88% |         482      0.79%     99.67% |         161      0.26%     99.93% |          17      0.03%     99.96% |          17      0.03%     99.99% |           8      0.01%    100.00% |           0      0.00%    100.00%
system.ruby.RMW_Read.Directory.miss_type_mach_latency_hist_seqr::total        60944                      
system.ruby.Locked_RMW_Read.L1Cache.miss_type_mach_latency_hist_seqr::bucket_size            8                      
system.ruby.Locked_RMW_Read.L1Cache.miss_type_mach_latency_hist_seqr::max_bucket           79                      
system.ruby.Locked_RMW_Read.L1Cache.miss_type_mach_latency_hist_seqr::samples         3724                      
system.ruby.Locked_RMW_Read.L1Cache.miss_type_mach_latency_hist_seqr::mean    45.548872                      
system.ruby.Locked_RMW_Read.L1Cache.miss_type_mach_latency_hist_seqr::gmean    45.523347                      
system.ruby.Locked_RMW_Read.L1Cache.miss_type_mach_latency_hist_seqr::stdev     1.607639                      
system.ruby.Locked_RMW_Read.L1Cache.miss_type_mach_latency_hist_seqr |           0      0.00%      0.00% |           0      0.00%      0.00% |           0      0.00%      0.00% |           0      0.00%      0.00% |           0      0.00%      0.00% |        3282     88.13%     88.13% |         436     11.71%     99.84% |           0      0.00%     99.84% |           6      0.16%    100.00% |           0      0.00%    100.00%
system.ruby.Locked_RMW_Read.L1Cache.miss_type_mach_latency_hist_seqr::total         3724                      
system.ruby.Locked_RMW_Read.Directory.miss_type_mach_latency_hist_seqr::bucket_size          128                      
system.ruby.Locked_RMW_Read.Directory.miss_type_mach_latency_hist_seqr::max_bucket         1279                      
system.ruby.Locked_RMW_Read.Directory.miss_type_mach_latency_hist_seqr::samples        31465                      
system.ruby.Locked_RMW_Read.Directory.miss_type_mach_latency_hist_seqr::mean   146.653965                      
system.ruby.Locked_RMW_Read.Directory.miss_type_mach_latency_hist_seqr::gmean   133.939655                      
system.ruby.Locked_RMW_Read.Directory.miss_type_mach_latency_hist_seqr::stdev    81.686636                      
system.ruby.Locked_RMW_Read.Directory.miss_type_mach_latency_hist_seqr |       17604     55.95%     55.95% |       11416     36.28%     92.23% |        1613      5.13%     97.36% |         426      1.35%     98.71% |         303      0.96%     99.67% |          87      0.28%     99.95% |           7      0.02%     99.97% |           5      0.02%     99.99% |           4      0.01%    100.00% |           0      0.00%    100.00%
system.ruby.Locked_RMW_Read.Directory.miss_type_mach_latency_hist_seqr::total        31465                      
system.ruby.Directory_Controller.GETX        11220309      0.00%      0.00%
system.ruby.Directory_Controller.PUTX        10867560      0.00%      0.00%
system.ruby.Directory_Controller.PUTX_NotOwner           23      0.00%      0.00%
system.ruby.Directory_Controller.DMA_READ            2      0.00%      0.00%
system.ruby.Directory_Controller.DMA_WRITE          128      0.00%      0.00%
system.ruby.Directory_Controller.Memory_Data     10867723      0.00%      0.00%
system.ruby.Directory_Controller.Memory_Ack     10867688      0.00%      0.00%
system.ruby.Directory_Controller.I.GETX      10867723      0.00%      0.00%
system.ruby.Directory_Controller.I.DMA_WRITE          128      0.00%      0.00%
system.ruby.Directory_Controller.M.GETX        352084      0.00%      0.00%
system.ruby.Directory_Controller.M.PUTX      10867558      0.00%      0.00%
system.ruby.Directory_Controller.M.PUTX_NotOwner           23      0.00%      0.00%
system.ruby.Directory_Controller.M.DMA_READ            2      0.00%      0.00%
system.ruby.Directory_Controller.M_DRD.PUTX            2      0.00%      0.00%
system.ruby.Directory_Controller.M_DRDI.Memory_Ack            2      0.00%      0.00%
system.ruby.Directory_Controller.IM.GETX          495      0.00%      0.00%
system.ruby.Directory_Controller.IM.Memory_Data     10867723      0.00%      0.00%
system.ruby.Directory_Controller.MI.GETX            7      0.00%      0.00%
system.ruby.Directory_Controller.MI.Memory_Ack     10867558      0.00%      0.00%
system.ruby.Directory_Controller.ID_W.Memory_Ack          128      0.00%      0.00%
system.ruby.DMA_Controller.ReadRequest   |           2    100.00%    100.00% |           0      0.00%    100.00%
system.ruby.DMA_Controller.ReadRequest::total            2                      
system.ruby.DMA_Controller.WriteRequest  |         128    100.00%    100.00% |           0      0.00%    100.00%
system.ruby.DMA_Controller.WriteRequest::total          128                      
system.ruby.DMA_Controller.Data          |           2    100.00%    100.00% |           0      0.00%    100.00%
system.ruby.DMA_Controller.Data::total              2                      
system.ruby.DMA_Controller.Ack           |         128    100.00%    100.00% |           0      0.00%    100.00%
system.ruby.DMA_Controller.Ack::total             128                      
system.ruby.DMA_Controller.READY.ReadRequest |           2    100.00%    100.00% |           0      0.00%    100.00%
system.ruby.DMA_Controller.READY.ReadRequest::total            2                      
system.ruby.DMA_Controller.READY.WriteRequest |         128    100.00%    100.00% |           0      0.00%    100.00%
system.ruby.DMA_Controller.READY.WriteRequest::total          128                      
system.ruby.DMA_Controller.BUSY_RD.Data  |           2    100.00%    100.00% |           0      0.00%    100.00%
system.ruby.DMA_Controller.BUSY_RD.Data::total            2                      
system.ruby.DMA_Controller.BUSY_WR.Ack   |         128    100.00%    100.00% |           0      0.00%    100.00%
system.ruby.DMA_Controller.BUSY_WR.Ack::total          128                      
system.ruby.L1Cache_Controller.Load      |      969870      0.86%      0.86% |   107936712     96.07%     96.93% |      719998      0.64%     97.57% |     2724881      2.43%    100.00%
system.ruby.L1Cache_Controller.Load::total    112351461                      
system.ruby.L1Cache_Controller.Ifetch    |     4718507      0.60%      0.60% |   764070346     96.88%     97.48% |     3567650      0.45%     97.93% |    16316494      2.07%    100.00%
system.ruby.L1Cache_Controller.Ifetch::total    788672997                      
system.ruby.L1Cache_Controller.Store     |      742387      1.20%      1.20% |    58600018     94.52%     95.71% |      529748      0.85%     96.57% |     2127324      3.43%    100.00%
system.ruby.L1Cache_Controller.Store::total     61999477                      
system.ruby.L1Cache_Controller.Data      |      205117      1.83%      1.83% |    10508930     93.66%     95.49% |      183442      1.63%     97.13% |      322318      2.87%    100.00%
system.ruby.L1Cache_Controller.Data::total     11219807                      
system.ruby.L1Cache_Controller.Fwd_GETX  |      116031     32.96%     32.96% |       31579      8.97%     41.92% |      102123     29.01%     70.93% |      102351     29.07%    100.00%
system.ruby.L1Cache_Controller.Fwd_GETX::total       352084                      
system.ruby.L1Cache_Controller.Inv       |           0      0.00%      0.00% |           0      0.00%      0.00% |           2     50.00%     50.00% |           2     50.00%    100.00%
system.ruby.L1Cache_Controller.Inv::total            4                      
system.ruby.L1Cache_Controller.Replacement |      116783      1.07%      1.07% |    10484850     95.84%     96.91% |       99523      0.91%     97.82% |      238663      2.18%    100.00%
system.ruby.L1Cache_Controller.Replacement::total     10939819                      
system.ruby.L1Cache_Controller.Writeback_Ack |       89027      0.82%      0.82% |    10477035     96.41%     97.23% |       81410      0.75%     97.97% |      220088      2.03%    100.00%
system.ruby.L1Cache_Controller.Writeback_Ack::total     10867560                      
system.ruby.L1Cache_Controller.Writeback_Nack |           1      4.35%      4.35% |          20     86.96%     91.30% |           1      4.35%     95.65% |           1      4.35%    100.00%
system.ruby.L1Cache_Controller.Writeback_Nack::total           23                      
system.ruby.L1Cache_Controller.I.Load    |       51445      0.77%      0.77% |     6447940     96.50%     97.27% |       49679      0.74%     98.01% |      132693      1.99%    100.00%
system.ruby.L1Cache_Controller.I.Load::total      6681757                      
system.ruby.L1Cache_Controller.I.Ifetch  |      136673     14.64%     14.64% |      532560     57.03%     71.67% |      121171     12.98%     84.65% |      143364     15.35%    100.00%
system.ruby.L1Cache_Controller.I.Ifetch::total       933768                      
system.ruby.L1Cache_Controller.I.Store   |       16999      0.47%      0.47% |     3528430     97.90%     98.37% |       12592      0.35%     98.72% |       46261      1.28%    100.00%
system.ruby.L1Cache_Controller.I.Store::total      3604282                      
system.ruby.L1Cache_Controller.I.Replacement |       27755     38.42%     38.42% |        7795     10.79%     49.21% |       18113     25.07%     74.29% |       18575     25.71%    100.00%
system.ruby.L1Cache_Controller.I.Replacement::total        72238                      
system.ruby.L1Cache_Controller.II.Writeback_Nack |           1      4.35%      4.35% |          20     86.96%     91.30% |           1      4.35%     95.65% |           1      4.35%    100.00%
system.ruby.L1Cache_Controller.II.Writeback_Nack::total           23                      
system.ruby.L1Cache_Controller.M.Load    |      918425      0.87%      0.87% |   101488772     96.04%     96.91% |      670319      0.63%     97.55% |     2592188      2.45%    100.00%
system.ruby.L1Cache_Controller.M.Load::total    105669704                      
system.ruby.L1Cache_Controller.M.Ifetch  |     4581834      0.58%      0.58% |   763537786     96.93%     97.51% |     3446479      0.44%     97.95% |    16173130      2.05%    100.00%
system.ruby.L1Cache_Controller.M.Ifetch::total    787739229                      
system.ruby.L1Cache_Controller.M.Store   |      725388      1.24%      1.24% |    55071588     94.31%     95.55% |      517156      0.89%     96.44% |     2081063      3.56%    100.00%
system.ruby.L1Cache_Controller.M.Store::total     58395195                      
system.ruby.L1Cache_Controller.M.Fwd_GETX |      116030     32.96%     32.96% |       31559      8.96%     41.92% |      102122     29.01%     70.93% |      102350     29.07%    100.00%
system.ruby.L1Cache_Controller.M.Fwd_GETX::total       352061                      
system.ruby.L1Cache_Controller.M.Inv     |           0      0.00%      0.00% |           0      0.00%      0.00% |           1     50.00%     50.00% |           1     50.00%    100.00%
system.ruby.L1Cache_Controller.M.Inv::total            2                      
system.ruby.L1Cache_Controller.M.Replacement |       89028      0.82%      0.82% |    10477055     96.41%     97.23% |       81410      0.75%     97.97% |      220088      2.03%    100.00%
system.ruby.L1Cache_Controller.M.Replacement::total     10867581                      
system.ruby.L1Cache_Controller.MI.Fwd_GETX |           1      4.35%      4.35% |          20     86.96%     91.30% |           1      4.35%     95.65% |           1      4.35%    100.00%
system.ruby.L1Cache_Controller.MI.Fwd_GETX::total           23                      
system.ruby.L1Cache_Controller.MI.Inv    |           0      0.00%      0.00% |           0      0.00%      0.00% |           1     50.00%     50.00% |           1     50.00%    100.00%
system.ruby.L1Cache_Controller.MI.Inv::total            2                      
system.ruby.L1Cache_Controller.MI.Writeback_Ack |       89027      0.82%      0.82% |    10477035     96.41%     97.23% |       81410      0.75%     97.97% |      220088      2.03%    100.00%
system.ruby.L1Cache_Controller.MI.Writeback_Ack::total     10867560                      
system.ruby.L1Cache_Controller.IS.Data   |      188118      2.47%      2.47% |     6980500     91.66%     94.13% |      170850      2.24%     96.38% |      276057      3.62%    100.00%
system.ruby.L1Cache_Controller.IS.Data::total      7615525                      
system.ruby.L1Cache_Controller.IM.Data   |       16999      0.47%      0.47% |     3528430     97.90%     98.37% |       12592      0.35%     98.72% |       46261      1.28%    100.00%
system.ruby.L1Cache_Controller.IM.Data::total      3604282                      

---------- End Simulation Statistics   ----------
