
---------- Begin Simulation Statistics ----------
sim_seconds                                  2.958141                       # Number of seconds simulated
sim_ticks                                2958140911000                       # Number of ticks simulated
final_tick                               54801262744001                       # Number of ticks from beginning of simulation (restored from checkpoints and never reset)
sim_freq                                 1000000000000                       # Frequency of simulated ticks
host_inst_rate                                 116773                       # Simulator instruction rate (inst/s)
host_op_rate                                   174322                       # Simulator op (including micro ops) rate (op/s)
host_tick_rate                              474578380                       # Simulator tick rate (ticks/s)
host_mem_usage                                2460696                       # Number of bytes of host memory used
host_seconds                                  6233.20                       # Real time elapsed on the host
sim_insts                                   727867854                       # Number of instructions simulated
sim_ops                                    1086586514                       # Number of ops (including micro ops) simulated
system.voltage_domain.voltage                       1                       # Voltage in Volts
system.clk_domain.clock                          1000                       # Clock period in ticks
system.mem_ctrls.bytes_read::ruby.dir_cntrl0   1502666112                       # Number of bytes read from this memory
system.mem_ctrls.bytes_read::total         1502666112                       # Number of bytes read from this memory
system.mem_ctrls.bytes_written::ruby.dir_cntrl0   1502656640                       # Number of bytes written to this memory
system.mem_ctrls.bytes_written::total      1502656640                       # Number of bytes written to this memory
system.mem_ctrls.num_reads::ruby.dir_cntrl0     23479158                       # Number of read requests responded to by this memory
system.mem_ctrls.num_reads::total            23479158                       # Number of read requests responded to by this memory
system.mem_ctrls.num_writes::ruby.dir_cntrl0     23479010                       # Number of write requests responded to by this memory
system.mem_ctrls.num_writes::total           23479010                       # Number of write requests responded to by this memory
system.mem_ctrls.bw_read::ruby.dir_cntrl0    507976515                       # Total read bandwidth from this memory (bytes/s)
system.mem_ctrls.bw_read::total             507976515                       # Total read bandwidth from this memory (bytes/s)
system.mem_ctrls.bw_write::ruby.dir_cntrl0    507973313                       # Write bandwidth from this memory (bytes/s)
system.mem_ctrls.bw_write::total            507973313                       # Write bandwidth from this memory (bytes/s)
system.mem_ctrls.bw_total::ruby.dir_cntrl0   1015949829                       # Total bandwidth to/from this memory (bytes/s)
system.mem_ctrls.bw_total::total           1015949829                       # Total bandwidth to/from this memory (bytes/s)
system.mem_ctrls.readReqs                    23479158                       # Number of read requests accepted
system.mem_ctrls.writeReqs                   23479010                       # Number of write requests accepted
system.mem_ctrls.readBursts                  23479158                       # Number of DRAM read bursts, including those serviced by the write queue
system.mem_ctrls.writeBursts                 23479010                       # Number of DRAM write bursts, including those merged in the write queue
system.mem_ctrls.bytesReadDRAM             1488255552                       # Total number of bytes read from DRAM
system.mem_ctrls.bytesReadWrQ                14410560                       # Total number of bytes read from write queue
system.mem_ctrls.bytesWritten              1502588288                       # Total number of bytes written to DRAM
system.mem_ctrls.bytesReadSys              1502666112                       # Total read bytes from the system interface side
system.mem_ctrls.bytesWrittenSys           1502656640                       # Total written bytes from the system interface side
system.mem_ctrls.servicedByWrQ                 225165                       # Number of DRAM read bursts serviced by the write queue
system.mem_ctrls.mergedWrBursts                  1060                       # Number of DRAM write bursts merged with an existing one
system.mem_ctrls.neitherReadNorWriteReqs            0                       # Number of requests that are neither read nor write
system.mem_ctrls.perBankRdBursts::0           2111878                       # Per bank write bursts
system.mem_ctrls.perBankRdBursts::1           2455357                       # Per bank write bursts
system.mem_ctrls.perBankRdBursts::2           1928107                       # Per bank write bursts
system.mem_ctrls.perBankRdBursts::3           1145063                       # Per bank write bursts
system.mem_ctrls.perBankRdBursts::4           1841224                       # Per bank write bursts
system.mem_ctrls.perBankRdBursts::5           1213523                       # Per bank write bursts
system.mem_ctrls.perBankRdBursts::6           1601727                       # Per bank write bursts
system.mem_ctrls.perBankRdBursts::7           1604304                       # Per bank write bursts
system.mem_ctrls.perBankRdBursts::8           1372049                       # Per bank write bursts
system.mem_ctrls.perBankRdBursts::9           1410399                       # Per bank write bursts
system.mem_ctrls.perBankRdBursts::10           801834                       # Per bank write bursts
system.mem_ctrls.perBankRdBursts::11          1010772                       # Per bank write bursts
system.mem_ctrls.perBankRdBursts::12           794374                       # Per bank write bursts
system.mem_ctrls.perBankRdBursts::13           798537                       # Per bank write bursts
system.mem_ctrls.perBankRdBursts::14           820185                       # Per bank write bursts
system.mem_ctrls.perBankRdBursts::15          2344660                       # Per bank write bursts
system.mem_ctrls.perBankWrBursts::0           2143252                       # Per bank write bursts
system.mem_ctrls.perBankWrBursts::1           2515526                       # Per bank write bursts
system.mem_ctrls.perBankWrBursts::2           1948952                       # Per bank write bursts
system.mem_ctrls.perBankWrBursts::3           1159166                       # Per bank write bursts
system.mem_ctrls.perBankWrBursts::4           1857794                       # Per bank write bursts
system.mem_ctrls.perBankWrBursts::5           1219827                       # Per bank write bursts
system.mem_ctrls.perBankWrBursts::6           1612673                       # Per bank write bursts
system.mem_ctrls.perBankWrBursts::7           1614619                       # Per bank write bursts
system.mem_ctrls.perBankWrBursts::8           1377966                       # Per bank write bursts
system.mem_ctrls.perBankWrBursts::9           1421000                       # Per bank write bursts
system.mem_ctrls.perBankWrBursts::10           803760                       # Per bank write bursts
system.mem_ctrls.perBankWrBursts::11          1014755                       # Per bank write bursts
system.mem_ctrls.perBankWrBursts::12           795727                       # Per bank write bursts
system.mem_ctrls.perBankWrBursts::13           800211                       # Per bank write bursts
system.mem_ctrls.perBankWrBursts::14           822384                       # Per bank write bursts
system.mem_ctrls.perBankWrBursts::15          2370330                       # Per bank write bursts
system.mem_ctrls.numRdRetry                         0                       # Number of times read queue was full causing retry
system.mem_ctrls.numWrRetry                         0                       # Number of times write queue was full causing retry
system.mem_ctrls.totGap                  2958140915000                       # Total gap between requests
system.mem_ctrls.readPktSize::0                     0                       # Read request sizes (log2)
system.mem_ctrls.readPktSize::1                     0                       # Read request sizes (log2)
system.mem_ctrls.readPktSize::2                     0                       # Read request sizes (log2)
system.mem_ctrls.readPktSize::3                     0                       # Read request sizes (log2)
system.mem_ctrls.readPktSize::4                     0                       # Read request sizes (log2)
system.mem_ctrls.readPktSize::5                     0                       # Read request sizes (log2)
system.mem_ctrls.readPktSize::6              23479158                       # Read request sizes (log2)
system.mem_ctrls.writePktSize::0                    0                       # Write request sizes (log2)
system.mem_ctrls.writePktSize::1                    0                       # Write request sizes (log2)
system.mem_ctrls.writePktSize::2                    0                       # Write request sizes (log2)
system.mem_ctrls.writePktSize::3                    0                       # Write request sizes (log2)
system.mem_ctrls.writePktSize::4                    0                       # Write request sizes (log2)
system.mem_ctrls.writePktSize::5                    0                       # Write request sizes (log2)
system.mem_ctrls.writePktSize::6             23479010                       # Write request sizes (log2)
system.mem_ctrls.rdQLenPdf::0                23168725                       # What read queue length does an incoming req see
system.mem_ctrls.rdQLenPdf::1                   85260                       # What read queue length does an incoming req see
system.mem_ctrls.rdQLenPdf::2                       8                       # What read queue length does an incoming req see
system.mem_ctrls.rdQLenPdf::3                       0                       # What read queue length does an incoming req see
system.mem_ctrls.rdQLenPdf::4                       0                       # What read queue length does an incoming req see
system.mem_ctrls.rdQLenPdf::5                       0                       # What read queue length does an incoming req see
system.mem_ctrls.rdQLenPdf::6                       0                       # What read queue length does an incoming req see
system.mem_ctrls.rdQLenPdf::7                       0                       # What read queue length does an incoming req see
system.mem_ctrls.rdQLenPdf::8                       0                       # What read queue length does an incoming req see
system.mem_ctrls.rdQLenPdf::9                       0                       # What read queue length does an incoming req see
system.mem_ctrls.rdQLenPdf::10                      0                       # What read queue length does an incoming req see
system.mem_ctrls.rdQLenPdf::11                      0                       # What read queue length does an incoming req see
system.mem_ctrls.rdQLenPdf::12                      0                       # What read queue length does an incoming req see
system.mem_ctrls.rdQLenPdf::13                      0                       # What read queue length does an incoming req see
system.mem_ctrls.rdQLenPdf::14                      0                       # What read queue length does an incoming req see
system.mem_ctrls.rdQLenPdf::15                      0                       # What read queue length does an incoming req see
system.mem_ctrls.rdQLenPdf::16                      0                       # What read queue length does an incoming req see
system.mem_ctrls.rdQLenPdf::17                      0                       # What read queue length does an incoming req see
system.mem_ctrls.rdQLenPdf::18                      0                       # What read queue length does an incoming req see
system.mem_ctrls.rdQLenPdf::19                      0                       # What read queue length does an incoming req see
system.mem_ctrls.rdQLenPdf::20                      0                       # What read queue length does an incoming req see
system.mem_ctrls.rdQLenPdf::21                      0                       # What read queue length does an incoming req see
system.mem_ctrls.rdQLenPdf::22                      0                       # What read queue length does an incoming req see
system.mem_ctrls.rdQLenPdf::23                      0                       # What read queue length does an incoming req see
system.mem_ctrls.rdQLenPdf::24                      0                       # What read queue length does an incoming req see
system.mem_ctrls.rdQLenPdf::25                      0                       # What read queue length does an incoming req see
system.mem_ctrls.rdQLenPdf::26                      0                       # What read queue length does an incoming req see
system.mem_ctrls.rdQLenPdf::27                      0                       # What read queue length does an incoming req see
system.mem_ctrls.rdQLenPdf::28                      0                       # What read queue length does an incoming req see
system.mem_ctrls.rdQLenPdf::29                      0                       # What read queue length does an incoming req see
system.mem_ctrls.rdQLenPdf::30                      0                       # What read queue length does an incoming req see
system.mem_ctrls.rdQLenPdf::31                      0                       # What read queue length does an incoming req see
system.mem_ctrls.wrQLenPdf::0                       0                       # What write queue length does an incoming req see
system.mem_ctrls.wrQLenPdf::1                       0                       # What write queue length does an incoming req see
system.mem_ctrls.wrQLenPdf::2                       0                       # What write queue length does an incoming req see
system.mem_ctrls.wrQLenPdf::3                       0                       # What write queue length does an incoming req see
system.mem_ctrls.wrQLenPdf::4                       0                       # What write queue length does an incoming req see
system.mem_ctrls.wrQLenPdf::5                       0                       # What write queue length does an incoming req see
system.mem_ctrls.wrQLenPdf::6                       0                       # What write queue length does an incoming req see
system.mem_ctrls.wrQLenPdf::7                       0                       # What write queue length does an incoming req see
system.mem_ctrls.wrQLenPdf::8                       0                       # What write queue length does an incoming req see
system.mem_ctrls.wrQLenPdf::9                       0                       # What write queue length does an incoming req see
system.mem_ctrls.wrQLenPdf::10                      0                       # What write queue length does an incoming req see
system.mem_ctrls.wrQLenPdf::11                      0                       # What write queue length does an incoming req see
system.mem_ctrls.wrQLenPdf::12                      0                       # What write queue length does an incoming req see
system.mem_ctrls.wrQLenPdf::13                      0                       # What write queue length does an incoming req see
system.mem_ctrls.wrQLenPdf::14                      0                       # What write queue length does an incoming req see
system.mem_ctrls.wrQLenPdf::15                  10604                       # What write queue length does an incoming req see
system.mem_ctrls.wrQLenPdf::16                  14858                       # What write queue length does an incoming req see
system.mem_ctrls.wrQLenPdf::17                1443437                       # What write queue length does an incoming req see
system.mem_ctrls.wrQLenPdf::18                1467684                       # What write queue length does an incoming req see
system.mem_ctrls.wrQLenPdf::19                1470779                       # What write queue length does an incoming req see
system.mem_ctrls.wrQLenPdf::20                1469204                       # What write queue length does an incoming req see
system.mem_ctrls.wrQLenPdf::21                1467863                       # What write queue length does an incoming req see
system.mem_ctrls.wrQLenPdf::22                1468823                       # What write queue length does an incoming req see
system.mem_ctrls.wrQLenPdf::23                1469900                       # What write queue length does an incoming req see
system.mem_ctrls.wrQLenPdf::24                1468348                       # What write queue length does an incoming req see
system.mem_ctrls.wrQLenPdf::25                1467437                       # What write queue length does an incoming req see
system.mem_ctrls.wrQLenPdf::26                1466268                       # What write queue length does an incoming req see
system.mem_ctrls.wrQLenPdf::27                1465676                       # What write queue length does an incoming req see
system.mem_ctrls.wrQLenPdf::28                1465410                       # What write queue length does an incoming req see
system.mem_ctrls.wrQLenPdf::29                1465334                       # What write queue length does an incoming req see
system.mem_ctrls.wrQLenPdf::30                1465266                       # What write queue length does an incoming req see
system.mem_ctrls.wrQLenPdf::31                1465239                       # What write queue length does an incoming req see
system.mem_ctrls.wrQLenPdf::32                1465233                       # What write queue length does an incoming req see
system.mem_ctrls.wrQLenPdf::33                    371                       # What write queue length does an incoming req see
system.mem_ctrls.wrQLenPdf::34                     94                       # What write queue length does an incoming req see
system.mem_ctrls.wrQLenPdf::35                     57                       # What write queue length does an incoming req see
system.mem_ctrls.wrQLenPdf::36                     33                       # What write queue length does an incoming req see
system.mem_ctrls.wrQLenPdf::37                     20                       # What write queue length does an incoming req see
system.mem_ctrls.wrQLenPdf::38                      7                       # What write queue length does an incoming req see
system.mem_ctrls.wrQLenPdf::39                      5                       # What write queue length does an incoming req see
system.mem_ctrls.wrQLenPdf::40                      0                       # What write queue length does an incoming req see
system.mem_ctrls.wrQLenPdf::41                      0                       # What write queue length does an incoming req see
system.mem_ctrls.wrQLenPdf::42                      0                       # What write queue length does an incoming req see
system.mem_ctrls.wrQLenPdf::43                      0                       # What write queue length does an incoming req see
system.mem_ctrls.wrQLenPdf::44                      0                       # What write queue length does an incoming req see
system.mem_ctrls.wrQLenPdf::45                      0                       # What write queue length does an incoming req see
system.mem_ctrls.wrQLenPdf::46                      0                       # What write queue length does an incoming req see
system.mem_ctrls.wrQLenPdf::47                      0                       # What write queue length does an incoming req see
system.mem_ctrls.wrQLenPdf::48                      0                       # What write queue length does an incoming req see
system.mem_ctrls.wrQLenPdf::49                      0                       # What write queue length does an incoming req see
system.mem_ctrls.wrQLenPdf::50                      0                       # What write queue length does an incoming req see
system.mem_ctrls.wrQLenPdf::51                      0                       # What write queue length does an incoming req see
system.mem_ctrls.wrQLenPdf::52                      0                       # What write queue length does an incoming req see
system.mem_ctrls.wrQLenPdf::53                      0                       # What write queue length does an incoming req see
system.mem_ctrls.wrQLenPdf::54                      0                       # What write queue length does an incoming req see
system.mem_ctrls.wrQLenPdf::55                      0                       # What write queue length does an incoming req see
system.mem_ctrls.wrQLenPdf::56                      0                       # What write queue length does an incoming req see
system.mem_ctrls.wrQLenPdf::57                      0                       # What write queue length does an incoming req see
system.mem_ctrls.wrQLenPdf::58                      0                       # What write queue length does an incoming req see
system.mem_ctrls.wrQLenPdf::59                      0                       # What write queue length does an incoming req see
system.mem_ctrls.wrQLenPdf::60                      0                       # What write queue length does an incoming req see
system.mem_ctrls.wrQLenPdf::61                      0                       # What write queue length does an incoming req see
system.mem_ctrls.wrQLenPdf::62                      0                       # What write queue length does an incoming req see
system.mem_ctrls.wrQLenPdf::63                      0                       # What write queue length does an incoming req see
system.mem_ctrls.bytesPerActivate::samples     30546334                       # Bytes accessed per row activation
system.mem_ctrls.bytesPerActivate::mean     97.911709                       # Bytes accessed per row activation
system.mem_ctrls.bytesPerActivate::gmean    80.541413                       # Bytes accessed per row activation
system.mem_ctrls.bytesPerActivate::stdev   106.545087                       # Bytes accessed per row activation
system.mem_ctrls.bytesPerActivate::0-127     23975753     78.49%     78.49% # Bytes accessed per row activation
system.mem_ctrls.bytesPerActivate::128-255      4862624     15.92%     94.41% # Bytes accessed per row activation
system.mem_ctrls.bytesPerActivate::256-383      1047038      3.43%     97.84% # Bytes accessed per row activation
system.mem_ctrls.bytesPerActivate::384-511       256565      0.84%     98.68% # Bytes accessed per row activation
system.mem_ctrls.bytesPerActivate::512-639        94923      0.31%     98.99% # Bytes accessed per row activation
system.mem_ctrls.bytesPerActivate::640-767        45132      0.15%     99.13% # Bytes accessed per row activation
system.mem_ctrls.bytesPerActivate::768-895        31906      0.10%     99.24% # Bytes accessed per row activation
system.mem_ctrls.bytesPerActivate::896-1023        26964      0.09%     99.33% # Bytes accessed per row activation
system.mem_ctrls.bytesPerActivate::1024-1151       205429      0.67%    100.00% # Bytes accessed per row activation
system.mem_ctrls.bytesPerActivate::total     30546334                       # Bytes accessed per row activation
system.mem_ctrls.rdPerTurnAround::samples      1465226                       # Reads before turning the bus around for writes
system.mem_ctrls.rdPerTurnAround::mean      15.870579                       # Reads before turning the bus around for writes
system.mem_ctrls.rdPerTurnAround::stdev      1.323793                       # Reads before turning the bus around for writes
system.mem_ctrls.rdPerTurnAround::0-3            1340      0.09%      0.09% # Reads before turning the bus around for writes
system.mem_ctrls.rdPerTurnAround::4-7            4196      0.29%      0.38% # Reads before turning the bus around for writes
system.mem_ctrls.rdPerTurnAround::8-11           3319      0.23%      0.60% # Reads before turning the bus around for writes
system.mem_ctrls.rdPerTurnAround::12-15        193134     13.18%     13.79% # Reads before turning the bus around for writes
system.mem_ctrls.rdPerTurnAround::16-19       1255851     85.71%     99.50% # Reads before turning the bus around for writes
system.mem_ctrls.rdPerTurnAround::20-23          2202      0.15%     99.65% # Reads before turning the bus around for writes
system.mem_ctrls.rdPerTurnAround::24-27          1118      0.08%     99.72% # Reads before turning the bus around for writes
system.mem_ctrls.rdPerTurnAround::28-31          2377      0.16%     99.88% # Reads before turning the bus around for writes
system.mem_ctrls.rdPerTurnAround::32-35          1124      0.08%     99.96% # Reads before turning the bus around for writes
system.mem_ctrls.rdPerTurnAround::36-39           213      0.01%     99.98% # Reads before turning the bus around for writes
system.mem_ctrls.rdPerTurnAround::40-43           201      0.01%     99.99% # Reads before turning the bus around for writes
system.mem_ctrls.rdPerTurnAround::44-47            98      0.01%    100.00% # Reads before turning the bus around for writes
system.mem_ctrls.rdPerTurnAround::48-51            25      0.00%    100.00% # Reads before turning the bus around for writes
system.mem_ctrls.rdPerTurnAround::52-55             8      0.00%    100.00% # Reads before turning the bus around for writes
system.mem_ctrls.rdPerTurnAround::56-59             8      0.00%    100.00% # Reads before turning the bus around for writes
system.mem_ctrls.rdPerTurnAround::60-63             4      0.00%    100.00% # Reads before turning the bus around for writes
system.mem_ctrls.rdPerTurnAround::68-71             1      0.00%    100.00% # Reads before turning the bus around for writes
system.mem_ctrls.rdPerTurnAround::72-75             2      0.00%    100.00% # Reads before turning the bus around for writes
system.mem_ctrls.rdPerTurnAround::76-79             1      0.00%    100.00% # Reads before turning the bus around for writes
system.mem_ctrls.rdPerTurnAround::80-83             2      0.00%    100.00% # Reads before turning the bus around for writes
system.mem_ctrls.rdPerTurnAround::88-91             1      0.00%    100.00% # Reads before turning the bus around for writes
system.mem_ctrls.rdPerTurnAround::92-95             1      0.00%    100.00% # Reads before turning the bus around for writes
system.mem_ctrls.rdPerTurnAround::total       1465226                       # Reads before turning the bus around for writes
system.mem_ctrls.wrPerTurnAround::samples      1465226                       # Writes before turning the bus around for reads
system.mem_ctrls.wrPerTurnAround::mean      16.023427                       # Writes before turning the bus around for reads
system.mem_ctrls.wrPerTurnAround::gmean     16.021770                       # Writes before turning the bus around for reads
system.mem_ctrls.wrPerTurnAround::stdev      0.243617                       # Writes before turning the bus around for reads
system.mem_ctrls.wrPerTurnAround::16          1449581     98.93%     98.93% # Writes before turning the bus around for reads
system.mem_ctrls.wrPerTurnAround::17             2748      0.19%     99.12% # Writes before turning the bus around for reads
system.mem_ctrls.wrPerTurnAround::18             8966      0.61%     99.73% # Writes before turning the bus around for reads
system.mem_ctrls.wrPerTurnAround::19             2294      0.16%     99.89% # Writes before turning the bus around for reads
system.mem_ctrls.wrPerTurnAround::20             1501      0.10%     99.99% # Writes before turning the bus around for reads
system.mem_ctrls.wrPerTurnAround::21              104      0.01%    100.00% # Writes before turning the bus around for reads
system.mem_ctrls.wrPerTurnAround::22               12      0.00%    100.00% # Writes before turning the bus around for reads
system.mem_ctrls.wrPerTurnAround::23                8      0.00%    100.00% # Writes before turning the bus around for reads
system.mem_ctrls.wrPerTurnAround::24                4      0.00%    100.00% # Writes before turning the bus around for reads
system.mem_ctrls.wrPerTurnAround::25                4      0.00%    100.00% # Writes before turning the bus around for reads
system.mem_ctrls.wrPerTurnAround::26                1      0.00%    100.00% # Writes before turning the bus around for reads
system.mem_ctrls.wrPerTurnAround::27                2      0.00%    100.00% # Writes before turning the bus around for reads
system.mem_ctrls.wrPerTurnAround::28                1      0.00%    100.00% # Writes before turning the bus around for reads
system.mem_ctrls.wrPerTurnAround::total       1465226                       # Writes before turning the bus around for reads
system.mem_ctrls.totQLat                 590747468784                       # Total ticks spent queuing
system.mem_ctrls.totMemAccLat            1026759837534                       # Total ticks spent from burst creation until serviced by the DRAM
system.mem_ctrls.totBusLat               116269965000                       # Total ticks spent in databus transfers
system.mem_ctrls.avgQLat                     25404.13                       # Average queueing delay per DRAM burst
system.mem_ctrls.avgBusLat                    5000.00                       # Average bus latency per DRAM burst
system.mem_ctrls.avgMemAccLat                44154.13                       # Average memory access latency per DRAM burst
system.mem_ctrls.avgRdBW                       503.11                       # Average DRAM read bandwidth in MiByte/s
system.mem_ctrls.avgWrBW                       507.95                       # Average achieved write bandwidth in MiByte/s
system.mem_ctrls.avgRdBWSys                    507.98                       # Average system read bandwidth in MiByte/s
system.mem_ctrls.avgWrBWSys                    507.97                       # Average system write bandwidth in MiByte/s
system.mem_ctrls.peakBW                      12800.00                       # Theoretical peak bandwidth in MiByte/s
system.mem_ctrls.busUtil                         7.90                       # Data bus utilization in percentage
system.mem_ctrls.busUtilRead                     3.93                       # Data bus utilization in percentage for reads
system.mem_ctrls.busUtilWrite                    3.97                       # Data bus utilization in percentage for writes
system.mem_ctrls.avgRdQLen                       1.00                       # Average read queue length when enqueuing
system.mem_ctrls.avgWrQLen                      25.85                       # Average write queue length when enqueuing
system.mem_ctrls.readRowHits                  5522193                       # Number of row buffer hits during reads
system.mem_ctrls.writeRowHits                10663407                       # Number of row buffer hits during writes
system.mem_ctrls.readRowHitRate                 23.75                       # Row buffer hit rate for reads
system.mem_ctrls.writeRowHitRate                45.42                       # Row buffer hit rate for writes
system.mem_ctrls.avgGap                      62995.24                       # Average gap between requests
system.mem_ctrls.pageHitRate                    34.63                       # Row buffer hit rate, read and write combined
system.mem_ctrls_0.actEnergy             135794829240                       # Energy for activate commands per rank (pJ)
system.mem_ctrls_0.preEnergy              74094400875                       # Energy for precharge commands per rank (pJ)
system.mem_ctrls_0.readEnergy            108611022000                       # Energy for read commands per rank (pJ)
system.mem_ctrls_0.writeEnergy            91332269280                       # Energy for write commands per rank (pJ)
system.mem_ctrls_0.refreshEnergy         193518776880                       # Energy for refresh commands per rank (pJ)
system.mem_ctrls_0.actBackEnergy         1485685566135                       # Energy for active background per rank (pJ)
system.mem_ctrls_0.preBackEnergy         474475528500                       # Energy for precharge background per rank (pJ)
system.mem_ctrls_0.totalEnergy           2563512392910                       # Total energy per rank (pJ)
system.mem_ctrls_0.averagePower            865.219158                       # Core power per rank (mW)
system.mem_ctrls_0.memoryStateTime::IDLE 780383131751                       # Time in different power states
system.mem_ctrls_0.memoryStateTime::REF   98778940000                       # Time in different power states
system.mem_ctrls_0.memoryStateTime::PRE_PDN            0                       # Time in different power states
system.mem_ctrls_0.memoryStateTime::ACT  2078982768249                       # Time in different power states
system.mem_ctrls_0.memoryStateTime::ACT_PDN            0                       # Time in different power states
system.mem_ctrls_1.actEnergy              95385638880                       # Energy for activate commands per rank (pJ)
system.mem_ctrls_1.preEnergy              52045735500                       # Energy for precharge commands per rank (pJ)
system.mem_ctrls_1.readEnergy             73064698200                       # Energy for read commands per rank (pJ)
system.mem_ctrls_1.writeEnergy            61039344960                       # Energy for write commands per rank (pJ)
system.mem_ctrls_1.refreshEnergy         193518776880                       # Energy for refresh commands per rank (pJ)
system.mem_ctrls_1.actBackEnergy         1461518109630                       # Energy for active background per rank (pJ)
system.mem_ctrls_1.preBackEnergy         495675051750                       # Energy for precharge background per rank (pJ)
system.mem_ctrls_1.totalEnergy           2432247355800                       # Total energy per rank (pJ)
system.mem_ctrls_1.averagePower            820.915481                       # Core power per rank (mW)
system.mem_ctrls_1.memoryStateTime::IDLE 815719750750                       # Time in different power states
system.mem_ctrls_1.memoryStateTime::REF   98778940000                       # Time in different power states
system.mem_ctrls_1.memoryStateTime::PRE_PDN            0                       # Time in different power states
system.mem_ctrls_1.memoryStateTime::ACT  2043645256250                       # Time in different power states
system.mem_ctrls_1.memoryStateTime::ACT_PDN            0                       # Time in different power states
system.cpu_voltage_domain.voltage                   1                       # Voltage in Volts
system.cpu_clk_domain.clock                       500                       # Clock period in ticks
system.cpu0.apic_clk_domain.clock                8000                       # Clock period in ticks
system.cpu0.numCycles                      5913194045                       # number of cpu cycles simulated
system.cpu0.numWorkItemsStarted                     0                       # number of work items this cpu started
system.cpu0.numWorkItemsCompleted                   0                       # number of work items this cpu completed
system.cpu0.kern.inst.arm                           0                       # number of arm instructions executed
system.cpu0.kern.inst.quiesce                       0                       # number of quiesce instructions executed
system.cpu0.committedInsts                    4914809                       # Number of instructions committed
system.cpu0.committedOps                     10064487                       # Number of ops (including micro ops) committed
system.cpu0.num_int_alu_accesses              9875681                       # Number of integer alu accesses
system.cpu0.num_fp_alu_accesses                  1778                       # Number of float alu accesses
system.cpu0.num_func_calls                     275978                       # number of times a function call or return occured
system.cpu0.num_conditional_control_insts       792398                       # number of instructions that are conditional controls
system.cpu0.num_int_insts                     9875681                       # number of integer instructions
system.cpu0.num_fp_insts                         1778                       # number of float instructions
system.cpu0.num_int_register_reads           19752404                       # number of times the integer registers were read
system.cpu0.num_int_register_writes           8067847                       # number of times the integer registers were written
system.cpu0.num_fp_register_reads                2988                       # number of times the floating registers were read
system.cpu0.num_fp_register_writes               1416                       # number of times the floating registers were written
system.cpu0.num_cc_register_reads             6139147                       # number of times the CC registers were read
system.cpu0.num_cc_register_writes            3334160                       # number of times the CC registers were written
system.cpu0.num_mem_refs                      2292420                       # number of memory refs
system.cpu0.num_load_insts                    1465341                       # Number of load instructions
system.cpu0.num_store_insts                    827079                       # Number of store instructions
system.cpu0.num_idle_cycles              5870762359.161513                       # Number of idle cycles
system.cpu0.num_busy_cycles              42431685.838487                       # Number of busy cycles
system.cpu0.not_idle_fraction                0.007176                       # Percentage of non-idle cycles
system.cpu0.idle_fraction                    0.992824                       # Percentage of idle cycles
system.cpu0.Branches                          1125911                       # Number of branches fetched
system.cpu0.op_class::No_OpClass                94159      0.94%      0.94% # Class of executed instruction
system.cpu0.op_class::IntAlu                  7635725     75.87%     76.80% # Class of executed instruction
system.cpu0.op_class::IntMult                   10657      0.11%     76.91% # Class of executed instruction
system.cpu0.op_class::IntDiv                    30273      0.30%     77.21% # Class of executed instruction
system.cpu0.op_class::FloatAdd                   1344      0.01%     77.22% # Class of executed instruction
system.cpu0.op_class::FloatCmp                      0      0.00%     77.22% # Class of executed instruction
system.cpu0.op_class::FloatCvt                      0      0.00%     77.22% # Class of executed instruction
system.cpu0.op_class::FloatMult                     0      0.00%     77.22% # Class of executed instruction
system.cpu0.op_class::FloatDiv                      0      0.00%     77.22% # Class of executed instruction
system.cpu0.op_class::FloatSqrt                     0      0.00%     77.22% # Class of executed instruction
system.cpu0.op_class::SimdAdd                       0      0.00%     77.22% # Class of executed instruction
system.cpu0.op_class::SimdAddAcc                    0      0.00%     77.22% # Class of executed instruction
system.cpu0.op_class::SimdAlu                       0      0.00%     77.22% # Class of executed instruction
system.cpu0.op_class::SimdCmp                       0      0.00%     77.22% # Class of executed instruction
system.cpu0.op_class::SimdCvt                       0      0.00%     77.22% # Class of executed instruction
system.cpu0.op_class::SimdMisc                      0      0.00%     77.22% # Class of executed instruction
system.cpu0.op_class::SimdMult                      0      0.00%     77.22% # Class of executed instruction
system.cpu0.op_class::SimdMultAcc                   0      0.00%     77.22% # Class of executed instruction
system.cpu0.op_class::SimdShift                     0      0.00%     77.22% # Class of executed instruction
system.cpu0.op_class::SimdShiftAcc                  0      0.00%     77.22% # Class of executed instruction
system.cpu0.op_class::SimdSqrt                      0      0.00%     77.22% # Class of executed instruction
system.cpu0.op_class::SimdFloatAdd                  0      0.00%     77.22% # Class of executed instruction
system.cpu0.op_class::SimdFloatAlu                  0      0.00%     77.22% # Class of executed instruction
system.cpu0.op_class::SimdFloatCmp                  0      0.00%     77.22% # Class of executed instruction
system.cpu0.op_class::SimdFloatCvt                  0      0.00%     77.22% # Class of executed instruction
system.cpu0.op_class::SimdFloatDiv                  0      0.00%     77.22% # Class of executed instruction
system.cpu0.op_class::SimdFloatMisc                 0      0.00%     77.22% # Class of executed instruction
system.cpu0.op_class::SimdFloatMult                 0      0.00%     77.22% # Class of executed instruction
system.cpu0.op_class::SimdFloatMultAcc              0      0.00%     77.22% # Class of executed instruction
system.cpu0.op_class::SimdFloatSqrt                 0      0.00%     77.22% # Class of executed instruction
system.cpu0.op_class::MemRead                 1465341     14.56%     91.78% # Class of executed instruction
system.cpu0.op_class::MemWrite                 827079      8.22%    100.00% # Class of executed instruction
system.cpu0.op_class::IprAccess                     0      0.00%    100.00% # Class of executed instruction
system.cpu0.op_class::InstPrefetch                  0      0.00%    100.00% # Class of executed instruction
system.cpu0.op_class::total                  10064578                       # Class of executed instruction
system.cpu1.apic_clk_domain.clock                8000                       # Clock period in ticks
system.cpu1.numCycles                      5918857613                       # number of cpu cycles simulated
system.cpu1.numWorkItemsStarted                     0                       # number of work items this cpu started
system.cpu1.numWorkItemsCompleted                   0                       # number of work items this cpu completed
system.cpu1.kern.inst.arm                           0                       # number of arm instructions executed
system.cpu1.kern.inst.quiesce                       0                       # number of quiesce instructions executed
system.cpu1.committedInsts                    2090600                       # Number of instructions committed
system.cpu1.committedOps                      4498568                       # Number of ops (including micro ops) committed
system.cpu1.num_int_alu_accesses              4400859                       # Number of integer alu accesses
system.cpu1.num_fp_alu_accesses                   154                       # Number of float alu accesses
system.cpu1.num_func_calls                     124741                       # number of times a function call or return occured
system.cpu1.num_conditional_control_insts       313835                       # number of instructions that are conditional controls
system.cpu1.num_int_insts                     4400859                       # number of integer instructions
system.cpu1.num_fp_insts                          154                       # number of float instructions
system.cpu1.num_int_register_reads            8952101                       # number of times the integer registers were read
system.cpu1.num_int_register_writes           3647240                       # number of times the integer registers were written
system.cpu1.num_fp_register_reads                 258                       # number of times the floating registers were read
system.cpu1.num_fp_register_writes                126                       # number of times the floating registers were written
system.cpu1.num_cc_register_reads             2497592                       # number of times the CC registers were read
system.cpu1.num_cc_register_writes            1323713                       # number of times the CC registers were written
system.cpu1.num_mem_refs                      1080770                       # number of memory refs
system.cpu1.num_load_insts                     672012                       # Number of load instructions
system.cpu1.num_store_insts                    408758                       # Number of store instructions
system.cpu1.num_idle_cycles              5900783179.299106                       # Number of idle cycles
system.cpu1.num_busy_cycles              18074433.700894                       # Number of busy cycles
system.cpu1.not_idle_fraction                0.003054                       # Percentage of non-idle cycles
system.cpu1.idle_fraction                    0.996946                       # Percentage of idle cycles
system.cpu1.Branches                           479062                       # Number of branches fetched
system.cpu1.op_class::No_OpClass                81471      1.81%      1.81% # Class of executed instruction
system.cpu1.op_class::IntAlu                  3296610     73.28%     75.09% # Class of executed instruction
system.cpu1.op_class::IntMult                   11137      0.25%     75.34% # Class of executed instruction
system.cpu1.op_class::IntDiv                    28483      0.63%     75.97% # Class of executed instruction
system.cpu1.op_class::FloatAdd                    120      0.00%     75.98% # Class of executed instruction
system.cpu1.op_class::FloatCmp                      0      0.00%     75.98% # Class of executed instruction
system.cpu1.op_class::FloatCvt                      0      0.00%     75.98% # Class of executed instruction
system.cpu1.op_class::FloatMult                     0      0.00%     75.98% # Class of executed instruction
system.cpu1.op_class::FloatDiv                      0      0.00%     75.98% # Class of executed instruction
system.cpu1.op_class::FloatSqrt                     0      0.00%     75.98% # Class of executed instruction
system.cpu1.op_class::SimdAdd                       0      0.00%     75.98% # Class of executed instruction
system.cpu1.op_class::SimdAddAcc                    0      0.00%     75.98% # Class of executed instruction
system.cpu1.op_class::SimdAlu                       0      0.00%     75.98% # Class of executed instruction
system.cpu1.op_class::SimdCmp                       0      0.00%     75.98% # Class of executed instruction
system.cpu1.op_class::SimdCvt                       0      0.00%     75.98% # Class of executed instruction
system.cpu1.op_class::SimdMisc                      0      0.00%     75.98% # Class of executed instruction
system.cpu1.op_class::SimdMult                      0      0.00%     75.98% # Class of executed instruction
system.cpu1.op_class::SimdMultAcc                   0      0.00%     75.98% # Class of executed instruction
system.cpu1.op_class::SimdShift                     0      0.00%     75.98% # Class of executed instruction
system.cpu1.op_class::SimdShiftAcc                  0      0.00%     75.98% # Class of executed instruction
system.cpu1.op_class::SimdSqrt                      0      0.00%     75.98% # Class of executed instruction
system.cpu1.op_class::SimdFloatAdd                  0      0.00%     75.98% # Class of executed instruction
system.cpu1.op_class::SimdFloatAlu                  0      0.00%     75.98% # Class of executed instruction
system.cpu1.op_class::SimdFloatCmp                  0      0.00%     75.98% # Class of executed instruction
system.cpu1.op_class::SimdFloatCvt                  0      0.00%     75.98% # Class of executed instruction
system.cpu1.op_class::SimdFloatDiv                  0      0.00%     75.98% # Class of executed instruction
system.cpu1.op_class::SimdFloatMisc                 0      0.00%     75.98% # Class of executed instruction
system.cpu1.op_class::SimdFloatMult                 0      0.00%     75.98% # Class of executed instruction
system.cpu1.op_class::SimdFloatMultAcc              0      0.00%     75.98% # Class of executed instruction
system.cpu1.op_class::SimdFloatSqrt                 0      0.00%     75.98% # Class of executed instruction
system.cpu1.op_class::MemRead                  672012     14.94%     90.91% # Class of executed instruction
system.cpu1.op_class::MemWrite                 408758      9.09%    100.00% # Class of executed instruction
system.cpu1.op_class::IprAccess                     0      0.00%    100.00% # Class of executed instruction
system.cpu1.op_class::InstPrefetch                  0      0.00%    100.00% # Class of executed instruction
system.cpu1.op_class::total                   4498591                       # Class of executed instruction
system.cpu2.apic_clk_domain.clock                8000                       # Clock period in ticks
system.cpu2.numCycles                      5918320878                       # number of cpu cycles simulated
system.cpu2.numWorkItemsStarted                     0                       # number of work items this cpu started
system.cpu2.numWorkItemsCompleted                   0                       # number of work items this cpu completed
system.cpu2.kern.inst.arm                           0                       # number of arm instructions executed
system.cpu2.kern.inst.quiesce                       0                       # number of quiesce instructions executed
system.cpu2.committedInsts                  717444539                       # Number of instructions committed
system.cpu2.committedOps                   1065051531                       # Number of ops (including micro ops) committed
system.cpu2.num_int_alu_accesses            464554042                       # Number of integer alu accesses
system.cpu2.num_fp_alu_accesses             708837843                       # Number of float alu accesses
system.cpu2.num_func_calls                     920801                       # number of times a function call or return occured
system.cpu2.num_conditional_control_insts     10867441                       # number of instructions that are conditional controls
system.cpu2.num_int_insts                   464554042                       # number of integer instructions
system.cpu2.num_fp_insts                    708837843                       # number of float instructions
system.cpu2.num_int_register_reads          973229962                       # number of times the integer registers were read
system.cpu2.num_int_register_writes         344314227                       # number of times the integer registers were written
system.cpu2.num_fp_register_reads          1593836311                       # number of times the floating registers were read
system.cpu2.num_fp_register_writes          654311799                       # number of times the floating registers were written
system.cpu2.num_cc_register_reads           111932989                       # number of times the CC registers were read
system.cpu2.num_cc_register_writes          201810784                       # number of times the CC registers were written
system.cpu2.num_mem_refs                    129523979                       # number of memory refs
system.cpu2.num_load_insts                   75552435                       # Number of load instructions
system.cpu2.num_store_insts                  53971544                       # Number of store instructions
system.cpu2.num_idle_cycles              17732707.498368                       # Number of idle cycles
system.cpu2.num_busy_cycles              5900588170.501632                       # Number of busy cycles
system.cpu2.not_idle_fraction                0.997004                       # Percentage of non-idle cycles
system.cpu2.idle_fraction                    0.002996                       # Percentage of idle cycles
system.cpu2.Branches                         12084259                       # Number of branches fetched
system.cpu2.op_class::No_OpClass               318610      0.03%      0.03% # Class of executed instruction
system.cpu2.op_class::IntAlu                431816015     40.54%     40.57% # Class of executed instruction
system.cpu2.op_class::IntMult                   90671      0.01%     40.58% # Class of executed instruction
system.cpu2.op_class::IntDiv                     1982      0.00%     40.58% # Class of executed instruction
system.cpu2.op_class::FloatAdd              503316796     47.26%     87.84% # Class of executed instruction
system.cpu2.op_class::FloatCmp                      0      0.00%     87.84% # Class of executed instruction
system.cpu2.op_class::FloatCvt                      0      0.00%     87.84% # Class of executed instruction
system.cpu2.op_class::FloatMult                     0      0.00%     87.84% # Class of executed instruction
system.cpu2.op_class::FloatDiv                      0      0.00%     87.84% # Class of executed instruction
system.cpu2.op_class::FloatSqrt                     0      0.00%     87.84% # Class of executed instruction
system.cpu2.op_class::SimdAdd                       0      0.00%     87.84% # Class of executed instruction
system.cpu2.op_class::SimdAddAcc                    0      0.00%     87.84% # Class of executed instruction
system.cpu2.op_class::SimdAlu                       0      0.00%     87.84% # Class of executed instruction
system.cpu2.op_class::SimdCmp                       0      0.00%     87.84% # Class of executed instruction
system.cpu2.op_class::SimdCvt                       0      0.00%     87.84% # Class of executed instruction
system.cpu2.op_class::SimdMisc                      0      0.00%     87.84% # Class of executed instruction
system.cpu2.op_class::SimdMult                      0      0.00%     87.84% # Class of executed instruction
system.cpu2.op_class::SimdMultAcc                   0      0.00%     87.84% # Class of executed instruction
system.cpu2.op_class::SimdShift                     0      0.00%     87.84% # Class of executed instruction
system.cpu2.op_class::SimdShiftAcc                  0      0.00%     87.84% # Class of executed instruction
system.cpu2.op_class::SimdSqrt                      0      0.00%     87.84% # Class of executed instruction
system.cpu2.op_class::SimdFloatAdd                  0      0.00%     87.84% # Class of executed instruction
system.cpu2.op_class::SimdFloatAlu                  0      0.00%     87.84% # Class of executed instruction
system.cpu2.op_class::SimdFloatCmp                  0      0.00%     87.84% # Class of executed instruction
system.cpu2.op_class::SimdFloatCvt                  0      0.00%     87.84% # Class of executed instruction
system.cpu2.op_class::SimdFloatDiv                  0      0.00%     87.84% # Class of executed instruction
system.cpu2.op_class::SimdFloatMisc                 0      0.00%     87.84% # Class of executed instruction
system.cpu2.op_class::SimdFloatMult                 0      0.00%     87.84% # Class of executed instruction
system.cpu2.op_class::SimdFloatMultAcc              0      0.00%     87.84% # Class of executed instruction
system.cpu2.op_class::SimdFloatSqrt                 0      0.00%     87.84% # Class of executed instruction
system.cpu2.op_class::MemRead                75552435      7.09%     94.93% # Class of executed instruction
system.cpu2.op_class::MemWrite               53971544      5.07%    100.00% # Class of executed instruction
system.cpu2.op_class::IprAccess                     0      0.00%    100.00% # Class of executed instruction
system.cpu2.op_class::InstPrefetch                  0      0.00%    100.00% # Class of executed instruction
system.cpu2.op_class::total                1065068053                       # Class of executed instruction
system.cpu3.apic_clk_domain.clock                8000                       # Clock period in ticks
system.cpu3.numCycles                      5910855397                       # number of cpu cycles simulated
system.cpu3.numWorkItemsStarted                     0                       # number of work items this cpu started
system.cpu3.numWorkItemsCompleted                   0                       # number of work items this cpu completed
system.cpu3.kern.inst.arm                           0                       # number of arm instructions executed
system.cpu3.kern.inst.quiesce                       0                       # number of quiesce instructions executed
system.cpu3.committedInsts                    2085566                       # Number of instructions committed
system.cpu3.committedOps                      4513989                       # Number of ops (including micro ops) committed
system.cpu3.num_int_alu_accesses              4412779                       # Number of integer alu accesses
system.cpu3.num_fp_alu_accesses                     0                       # Number of float alu accesses
system.cpu3.num_func_calls                     123776                       # number of times a function call or return occured
system.cpu3.num_conditional_control_insts       318634                       # number of instructions that are conditional controls
system.cpu3.num_int_insts                     4412779                       # number of integer instructions
system.cpu3.num_fp_insts                            0                       # number of float instructions
system.cpu3.num_int_register_reads            8968453                       # number of times the integer registers were read
system.cpu3.num_int_register_writes           3667986                       # number of times the integer registers were written
system.cpu3.num_fp_register_reads                   0                       # number of times the floating registers were read
system.cpu3.num_fp_register_writes                  0                       # number of times the floating registers were written
system.cpu3.num_cc_register_reads             2558723                       # number of times the CC registers were read
system.cpu3.num_cc_register_writes            1334564                       # number of times the CC registers were written
system.cpu3.num_mem_refs                      1070332                       # number of memory refs
system.cpu3.num_load_insts                     665503                       # Number of load instructions
system.cpu3.num_store_insts                    404829                       # Number of store instructions
system.cpu3.num_idle_cycles              5893359501.001369                       # Number of idle cycles
system.cpu3.num_busy_cycles              17495895.998631                       # Number of busy cycles
system.cpu3.not_idle_fraction                0.002960                       # Percentage of non-idle cycles
system.cpu3.idle_fraction                    0.997040                       # Percentage of idle cycles
system.cpu3.Branches                           483094                       # Number of branches fetched
system.cpu3.op_class::No_OpClass                87289      1.93%      1.93% # Class of executed instruction
system.cpu3.op_class::IntAlu                  3315770     73.46%     75.39% # Class of executed instruction
system.cpu3.op_class::IntMult                    8933      0.20%     75.59% # Class of executed instruction
system.cpu3.op_class::IntDiv                    31668      0.70%     76.29% # Class of executed instruction
system.cpu3.op_class::FloatAdd                      0      0.00%     76.29% # Class of executed instruction
system.cpu3.op_class::FloatCmp                      0      0.00%     76.29% # Class of executed instruction
system.cpu3.op_class::FloatCvt                      0      0.00%     76.29% # Class of executed instruction
system.cpu3.op_class::FloatMult                     0      0.00%     76.29% # Class of executed instruction
system.cpu3.op_class::FloatDiv                      0      0.00%     76.29% # Class of executed instruction
system.cpu3.op_class::FloatSqrt                     0      0.00%     76.29% # Class of executed instruction
system.cpu3.op_class::SimdAdd                       0      0.00%     76.29% # Class of executed instruction
system.cpu3.op_class::SimdAddAcc                    0      0.00%     76.29% # Class of executed instruction
system.cpu3.op_class::SimdAlu                       0      0.00%     76.29% # Class of executed instruction
system.cpu3.op_class::SimdCmp                       0      0.00%     76.29% # Class of executed instruction
system.cpu3.op_class::SimdCvt                       0      0.00%     76.29% # Class of executed instruction
system.cpu3.op_class::SimdMisc                      0      0.00%     76.29% # Class of executed instruction
system.cpu3.op_class::SimdMult                      0      0.00%     76.29% # Class of executed instruction
system.cpu3.op_class::SimdMultAcc                   0      0.00%     76.29% # Class of executed instruction
system.cpu3.op_class::SimdShift                     0      0.00%     76.29% # Class of executed instruction
system.cpu3.op_class::SimdShiftAcc                  0      0.00%     76.29% # Class of executed instruction
system.cpu3.op_class::SimdSqrt                      0      0.00%     76.29% # Class of executed instruction
system.cpu3.op_class::SimdFloatAdd                  0      0.00%     76.29% # Class of executed instruction
system.cpu3.op_class::SimdFloatAlu                  0      0.00%     76.29% # Class of executed instruction
system.cpu3.op_class::SimdFloatCmp                  0      0.00%     76.29% # Class of executed instruction
system.cpu3.op_class::SimdFloatCvt                  0      0.00%     76.29% # Class of executed instruction
system.cpu3.op_class::SimdFloatDiv                  0      0.00%     76.29% # Class of executed instruction
system.cpu3.op_class::SimdFloatMisc                 0      0.00%     76.29% # Class of executed instruction
system.cpu3.op_class::SimdFloatMult                 0      0.00%     76.29% # Class of executed instruction
system.cpu3.op_class::SimdFloatMultAcc              0      0.00%     76.29% # Class of executed instruction
system.cpu3.op_class::SimdFloatSqrt                 0      0.00%     76.29% # Class of executed instruction
system.cpu3.op_class::MemRead                  665503     14.74%     91.03% # Class of executed instruction
system.cpu3.op_class::MemWrite                 404829      8.97%    100.00% # Class of executed instruction
system.cpu3.op_class::IprAccess                     0      0.00%    100.00% # Class of executed instruction
system.cpu3.op_class::InstPrefetch                  0      0.00%    100.00% # Class of executed instruction
system.cpu3.op_class::total                   4513992                       # Class of executed instruction
system.iobus.trans_dist::ReadReq                   85                       # Transaction distribution
system.iobus.trans_dist::ReadResp                  85                       # Transaction distribution
system.iobus.trans_dist::WriteReq                3024                       # Transaction distribution
system.iobus.trans_dist::WriteResp               3024                       # Transaction distribution
system.iobus.trans_dist::MessageReq                14                       # Transaction distribution
system.iobus.trans_dist::MessageResp               14                       # Transaction distribution
system.iobus.pkt_count_system.pc.south_bridge.io_apic.int_master::system.ruby.l1_cntrl0.sequencer.pio-slave-port            4                       # Packet count per connected master and slave (bytes)
system.iobus.pkt_count_system.pc.south_bridge.io_apic.int_master::system.ruby.l1_cntrl1.sequencer.pio-slave-port            4                       # Packet count per connected master and slave (bytes)
system.iobus.pkt_count_system.pc.south_bridge.io_apic.int_master::system.ruby.l1_cntrl2.sequencer.pio-slave-port            2                       # Packet count per connected master and slave (bytes)
system.iobus.pkt_count_system.pc.south_bridge.io_apic.int_master::system.ruby.l1_cntrl3.sequencer.pio-slave-port            2                       # Packet count per connected master and slave (bytes)
system.iobus.pkt_count_system.pc.south_bridge.io_apic.int_master::total           12                       # Packet count per connected master and slave (bytes)
system.iobus.pkt_count_system.ruby.l1_cntrl0.sequencer.mem-master-port::system.pc.south_bridge.io_apic.pio           14                       # Packet count per connected master and slave (bytes)
system.iobus.pkt_count_system.ruby.l1_cntrl0.sequencer.mem-master-port::system.pc.com_1.pio          162                       # Packet count per connected master and slave (bytes)
system.iobus.pkt_count_system.ruby.l1_cntrl0.sequencer.mem-master-port::system.ruby.l1_cntrl0.sequencer.pio-slave-port         1504                       # Packet count per connected master and slave (bytes)
system.iobus.pkt_count_system.ruby.l1_cntrl0.sequencer.mem-master-port::system.ruby.l1_cntrl1.sequencer.pio-slave-port            2                       # Packet count per connected master and slave (bytes)
system.iobus.pkt_count_system.ruby.l1_cntrl0.sequencer.mem-master-port::system.ruby.l1_cntrl2.sequencer.pio-slave-port            2                       # Packet count per connected master and slave (bytes)
system.iobus.pkt_count_system.ruby.l1_cntrl0.sequencer.mem-master-port::system.ruby.l1_cntrl3.sequencer.pio-slave-port            2                       # Packet count per connected master and slave (bytes)
system.iobus.pkt_count_system.ruby.l1_cntrl0.sequencer.mem-master-port::total         1686                       # Packet count per connected master and slave (bytes)
system.iobus.pkt_count_system.ruby.l1_cntrl1.sequencer.mem-master-port::system.pc.south_bridge.io_apic.pio           16                       # Packet count per connected master and slave (bytes)
system.iobus.pkt_count_system.ruby.l1_cntrl1.sequencer.mem-master-port::system.ruby.l1_cntrl1.sequencer.pio-slave-port         1494                       # Packet count per connected master and slave (bytes)
system.iobus.pkt_count_system.ruby.l1_cntrl1.sequencer.mem-master-port::system.ruby.l1_cntrl2.sequencer.pio-slave-port            2                       # Packet count per connected master and slave (bytes)
system.iobus.pkt_count_system.ruby.l1_cntrl1.sequencer.mem-master-port::total         1512                       # Packet count per connected master and slave (bytes)
system.iobus.pkt_count_system.ruby.l1_cntrl2.sequencer.mem-master-port::system.pc.south_bridge.io_apic.pio            8                       # Packet count per connected master and slave (bytes)
system.iobus.pkt_count_system.ruby.l1_cntrl2.sequencer.mem-master-port::system.ruby.l1_cntrl0.sequencer.pio-slave-port            2                       # Packet count per connected master and slave (bytes)
system.iobus.pkt_count_system.ruby.l1_cntrl2.sequencer.mem-master-port::system.ruby.l1_cntrl1.sequencer.pio-slave-port            2                       # Packet count per connected master and slave (bytes)
system.iobus.pkt_count_system.ruby.l1_cntrl2.sequencer.mem-master-port::system.ruby.l1_cntrl2.sequencer.pio-slave-port         1502                       # Packet count per connected master and slave (bytes)
system.iobus.pkt_count_system.ruby.l1_cntrl2.sequencer.mem-master-port::system.ruby.l1_cntrl3.sequencer.pio-slave-port            2                       # Packet count per connected master and slave (bytes)
system.iobus.pkt_count_system.ruby.l1_cntrl2.sequencer.mem-master-port::total         1516                       # Packet count per connected master and slave (bytes)
system.iobus.pkt_count_system.ruby.l1_cntrl3.sequencer.mem-master-port::system.pc.south_bridge.io_apic.pio            6                       # Packet count per connected master and slave (bytes)
system.iobus.pkt_count_system.ruby.l1_cntrl3.sequencer.mem-master-port::system.pc.com_1.pio           22                       # Packet count per connected master and slave (bytes)
system.iobus.pkt_count_system.ruby.l1_cntrl3.sequencer.mem-master-port::system.ruby.l1_cntrl0.sequencer.pio-slave-port            2                       # Packet count per connected master and slave (bytes)
system.iobus.pkt_count_system.ruby.l1_cntrl3.sequencer.mem-master-port::system.ruby.l1_cntrl3.sequencer.pio-slave-port         1490                       # Packet count per connected master and slave (bytes)
system.iobus.pkt_count_system.ruby.l1_cntrl3.sequencer.mem-master-port::total         1520                       # Packet count per connected master and slave (bytes)
system.iobus.pkt_count::total                    6246                       # Packet count per connected master and slave (bytes)
system.iobus.pkt_size_system.pc.south_bridge.io_apic.int_master::system.ruby.l1_cntrl0.sequencer.pio-slave-port            8                       # Cumulative packet size per connected master and slave (bytes)
system.iobus.pkt_size_system.pc.south_bridge.io_apic.int_master::system.ruby.l1_cntrl1.sequencer.pio-slave-port            8                       # Cumulative packet size per connected master and slave (bytes)
system.iobus.pkt_size_system.pc.south_bridge.io_apic.int_master::system.ruby.l1_cntrl2.sequencer.pio-slave-port            4                       # Cumulative packet size per connected master and slave (bytes)
system.iobus.pkt_size_system.pc.south_bridge.io_apic.int_master::system.ruby.l1_cntrl3.sequencer.pio-slave-port            4                       # Cumulative packet size per connected master and slave (bytes)
system.iobus.pkt_size_system.pc.south_bridge.io_apic.int_master::total           24                       # Cumulative packet size per connected master and slave (bytes)
system.iobus.pkt_size_system.ruby.l1_cntrl0.sequencer.mem-master-port::system.pc.south_bridge.io_apic.pio           28                       # Cumulative packet size per connected master and slave (bytes)
system.iobus.pkt_size_system.ruby.l1_cntrl0.sequencer.mem-master-port::system.pc.com_1.pio           81                       # Cumulative packet size per connected master and slave (bytes)
system.iobus.pkt_size_system.ruby.l1_cntrl0.sequencer.mem-master-port::system.ruby.l1_cntrl0.sequencer.pio-slave-port         3008                       # Cumulative packet size per connected master and slave (bytes)
system.iobus.pkt_size_system.ruby.l1_cntrl0.sequencer.mem-master-port::system.ruby.l1_cntrl1.sequencer.pio-slave-port            4                       # Cumulative packet size per connected master and slave (bytes)
system.iobus.pkt_size_system.ruby.l1_cntrl0.sequencer.mem-master-port::system.ruby.l1_cntrl2.sequencer.pio-slave-port            4                       # Cumulative packet size per connected master and slave (bytes)
system.iobus.pkt_size_system.ruby.l1_cntrl0.sequencer.mem-master-port::system.ruby.l1_cntrl3.sequencer.pio-slave-port            4                       # Cumulative packet size per connected master and slave (bytes)
system.iobus.pkt_size_system.ruby.l1_cntrl0.sequencer.mem-master-port::total         3129                       # Cumulative packet size per connected master and slave (bytes)
system.iobus.pkt_size_system.ruby.l1_cntrl1.sequencer.mem-master-port::system.pc.south_bridge.io_apic.pio           32                       # Cumulative packet size per connected master and slave (bytes)
system.iobus.pkt_size_system.ruby.l1_cntrl1.sequencer.mem-master-port::system.ruby.l1_cntrl1.sequencer.pio-slave-port         2988                       # Cumulative packet size per connected master and slave (bytes)
system.iobus.pkt_size_system.ruby.l1_cntrl1.sequencer.mem-master-port::system.ruby.l1_cntrl2.sequencer.pio-slave-port            4                       # Cumulative packet size per connected master and slave (bytes)
system.iobus.pkt_size_system.ruby.l1_cntrl1.sequencer.mem-master-port::total         3024                       # Cumulative packet size per connected master and slave (bytes)
system.iobus.pkt_size_system.ruby.l1_cntrl2.sequencer.mem-master-port::system.pc.south_bridge.io_apic.pio           16                       # Cumulative packet size per connected master and slave (bytes)
system.iobus.pkt_size_system.ruby.l1_cntrl2.sequencer.mem-master-port::system.ruby.l1_cntrl0.sequencer.pio-slave-port            4                       # Cumulative packet size per connected master and slave (bytes)
system.iobus.pkt_size_system.ruby.l1_cntrl2.sequencer.mem-master-port::system.ruby.l1_cntrl1.sequencer.pio-slave-port            4                       # Cumulative packet size per connected master and slave (bytes)
system.iobus.pkt_size_system.ruby.l1_cntrl2.sequencer.mem-master-port::system.ruby.l1_cntrl2.sequencer.pio-slave-port         3004                       # Cumulative packet size per connected master and slave (bytes)
system.iobus.pkt_size_system.ruby.l1_cntrl2.sequencer.mem-master-port::system.ruby.l1_cntrl3.sequencer.pio-slave-port            4                       # Cumulative packet size per connected master and slave (bytes)
system.iobus.pkt_size_system.ruby.l1_cntrl2.sequencer.mem-master-port::total         3032                       # Cumulative packet size per connected master and slave (bytes)
system.iobus.pkt_size_system.ruby.l1_cntrl3.sequencer.mem-master-port::system.pc.south_bridge.io_apic.pio           12                       # Cumulative packet size per connected master and slave (bytes)
system.iobus.pkt_size_system.ruby.l1_cntrl3.sequencer.mem-master-port::system.pc.com_1.pio           11                       # Cumulative packet size per connected master and slave (bytes)
system.iobus.pkt_size_system.ruby.l1_cntrl3.sequencer.mem-master-port::system.ruby.l1_cntrl0.sequencer.pio-slave-port            4                       # Cumulative packet size per connected master and slave (bytes)
system.iobus.pkt_size_system.ruby.l1_cntrl3.sequencer.mem-master-port::system.ruby.l1_cntrl3.sequencer.pio-slave-port         2980                       # Cumulative packet size per connected master and slave (bytes)
system.iobus.pkt_size_system.ruby.l1_cntrl3.sequencer.mem-master-port::total         3007                       # Cumulative packet size per connected master and slave (bytes)
system.iobus.pkt_size::total                    12216                       # Cumulative packet size per connected master and slave (bytes)
system.iobus.reqLayer8.occupancy                37996                       # Layer occupancy (ticks)
system.iobus.reqLayer8.utilization                0.0                       # Layer utilization (%)
system.iobus.reqLayer12.occupancy              119500                       # Layer occupancy (ticks)
system.iobus.reqLayer12.utilization               0.0                       # Layer utilization (%)
system.iobus.reqLayer17.occupancy             1673998                       # Layer occupancy (ticks)
system.iobus.reqLayer17.utilization               0.0                       # Layer utilization (%)
system.iobus.reqLayer18.occupancy             1821500                       # Layer occupancy (ticks)
system.iobus.reqLayer18.utilization               0.0                       # Layer utilization (%)
system.iobus.reqLayer19.occupancy             1956471                       # Layer occupancy (ticks)
system.iobus.reqLayer19.utilization               0.0                       # Layer utilization (%)
system.iobus.reqLayer20.occupancy             1786500                       # Layer occupancy (ticks)
system.iobus.reqLayer20.utilization               0.0                       # Layer utilization (%)
system.iobus.respLayer0.occupancy                7500                       # Layer occupancy (ticks)
system.iobus.respLayer0.utilization               0.0                       # Layer utilization (%)
system.iobus.respLayer2.occupancy             1284000                       # Layer occupancy (ticks)
system.iobus.respLayer2.utilization               0.0                       # Layer utilization (%)
system.iobus.respLayer4.occupancy             1135000                       # Layer occupancy (ticks)
system.iobus.respLayer4.utilization               0.0                       # Layer utilization (%)
system.iobus.respLayer6.occupancy             1138500                       # Layer occupancy (ticks)
system.iobus.respLayer6.utilization               0.0                       # Layer utilization (%)
system.iobus.respLayer8.occupancy             1142500                       # Layer occupancy (ticks)
system.iobus.respLayer8.utilization               0.0                       # Layer utilization (%)
system.pc.south_bridge.ide.disks.dma_read_full_pages            0                       # Number of full page size DMA reads (not PRD).
system.pc.south_bridge.ide.disks.dma_read_bytes            0                       # Number of bytes transfered via DMA reads (not PRD).
system.pc.south_bridge.ide.disks.dma_read_txs            0                       # Number of DMA read transactions (not PRD).
system.pc.south_bridge.ide.disks.dma_write_full_pages            0                       # Number of full page size DMA writes.
system.pc.south_bridge.ide.disks.dma_write_bytes            0                       # Number of bytes transfered via DMA writes.
system.pc.south_bridge.ide.disks.dma_write_txs            0                       # Number of DMA write transactions.
system.ruby.clk_domain.clock                      500                       # Clock period in ticks
system.ruby.delayHist::bucket_size                  2                       # delay histogram for all message
system.ruby.delayHist::max_bucket                  19                       # delay histogram for all message
system.ruby.delayHist::samples               48065727                       # delay histogram for all message
system.ruby.delayHist::mean                  0.003285                       # delay histogram for all message
system.ruby.delayHist::stdev                 0.159110                       # delay histogram for all message
system.ruby.delayHist                    |    48042132     99.95%     99.95% |        2563      0.01%     99.96% |        2537      0.01%     99.96% |        5482      0.01%     99.97% |       12233      0.03%    100.00% |         115      0.00%    100.00% |          71      0.00%    100.00% |         112      0.00%    100.00% |         200      0.00%    100.00% |         282      0.00%    100.00% # delay histogram for all message
system.ruby.delayHist::total                 48065727                       # delay histogram for all message
system.ruby.outstanding_req_hist_seqr::bucket_size            1                      
system.ruby.outstanding_req_hist_seqr::max_bucket            9                      
system.ruby.outstanding_req_hist_seqr::samples   1231182324                      
system.ruby.outstanding_req_hist_seqr::mean     1.000000                      
system.ruby.outstanding_req_hist_seqr::gmean     1.000000                      
system.ruby.outstanding_req_hist_seqr::stdev     0.000423                      
system.ruby.outstanding_req_hist_seqr    |           0      0.00%      0.00% |  1231182104    100.00%    100.00% |         220      0.00%    100.00% |           0      0.00%    100.00% |           0      0.00%    100.00% |           0      0.00%    100.00% |           0      0.00%    100.00% |           0      0.00%    100.00% |           0      0.00%    100.00% |           0      0.00%    100.00%
system.ruby.outstanding_req_hist_seqr::total   1231182324                      
system.ruby.latency_hist_seqr::bucket_size          128                      
[...]
system.ruby.LD.Directory.miss_type_mach_latency_hist_seqr::gmean   134.744731                      
system.ruby.LD.Directory.miss_type_mach_latency_hist_seqr::stdev    75.662714                      
system.ruby.LD.Directory.miss_type_mach_latency_hist_seqr |    16176405     59.70%     59.70% |     8929598     32.95%     92.65% |     1492527      5.51%     98.16% |      195710      0.72%     98.88% |      226783      0.84%     99.72% |       61570      0.23%     99.94% |        4933      0.02%     99.96% |        9640      0.04%    100.00% |         906      0.00%    100.00% |           4      0.00%    100.00%
system.ruby.LD.Directory.miss_type_mach_latency_hist_seqr::total     27098076                      
system.ruby.ST.L1Cache.miss_type_mach_latency_hist_seqr::bucket_size            8                      
system.ruby.ST.L1Cache.miss_type_mach_latency_hist_seqr::max_bucket           79                      
system.ruby.ST.L1Cache.miss_type_mach_latency_hist_seqr::samples         5652                      
system.ruby.ST.L1Cache.miss_type_mach_latency_hist_seqr::mean    48.005839                      
system.ruby.ST.L1Cache.miss_type_mach_latency_hist_seqr::gmean    47.964809                      
system.ruby.ST.L1Cache.miss_type_mach_latency_hist_seqr::stdev     1.975554                      
system.ruby.ST.L1Cache.miss_type_mach_latency_hist_seqr |           0      0.00%      0.00% |           0      0.00%      0.00% |           0      0.00%      0.00% |           0      0.00%      0.00% |           0      0.00%      0.00% |        1562     27.64%     27.64% |        4085     72.28%     99.91% |           5      0.09%    100.00% |           0      0.00%    100.00% |           0      0.00%    100.00%
system.ruby.ST.L1Cache.miss_type_mach_latency_hist_seqr::total         5652                      
system.ruby.ST.Directory.miss_type_mach_latency_hist_seqr::bucket_size          128                      
system.ruby.ST.Directory.miss_type_mach_latency_hist_seqr::max_bucket         1279                      
system.ruby.ST.Directory.miss_type_mach_latency_hist_seqr::samples     18968789                      
system.ruby.ST.Directory.miss_type_mach_latency_hist_seqr::mean   156.394516                      
system.ruby.ST.Directory.miss_type_mach_latency_hist_seqr::gmean   147.927016                      
system.ruby.ST.Directory.miss_type_mach_latency_hist_seqr::stdev    69.434540                      
system.ruby.ST.Directory.miss_type_mach_latency_hist_seqr |     7315337     38.57%     38.57% |    10284762     54.22%     92.78% |     1072108      5.65%     98.44% |      102187      0.54%     98.98% |      140314      0.74%     99.71% |       43562      0.23%     99.94% |        3868      0.02%     99.96% |        6132      0.03%    100.00% |         517      0.00%    100.00% |           2      0.00%    100.00%
system.ruby.ST.Directory.miss_type_mach_latency_hist_seqr::total     18968789                      
system.ruby.IFETCH.L1Cache.miss_type_mach_latency_hist_seqr::bucket_size           32                      
system.ruby.IFETCH.L1Cache.miss_type_mach_latency_hist_seqr::max_bucket          319                      
system.ruby.IFETCH.L1Cache.miss_type_mach_latency_hist_seqr::samples       959226                      
system.ruby.IFETCH.L1Cache.miss_type_mach_latency_hist_seqr::mean    45.891180                      
system.ruby.IFETCH.L1Cache.miss_type_mach_latency_hist_seqr::gmean    45.861219                      
system.ruby.IFETCH.L1Cache.miss_type_mach_latency_hist_seqr::stdev     1.694879                      
system.ruby.IFETCH.L1Cache.miss_type_mach_latency_hist_seqr |           0      0.00%      0.00% |      959219    100.00%    100.00% |           5      0.00%    100.00% |           1      0.00%    100.00% |           0      0.00%    100.00% |           0      0.00%    100.00% |           1      0.00%    100.00% |           0      0.00%    100.00% |           0      0.00%    100.00% |           0      0.00%    100.00%
system.ruby.IFETCH.L1Cache.miss_type_mach_latency_hist_seqr::total       959226                      
system.ruby.IFETCH.Directory.miss_type_mach_latency_hist_seqr::bucket_size          128                      
system.ruby.IFETCH.Directory.miss_type_mach_latency_hist_seqr::max_bucket         1279                      
system.ruby.IFETCH.Directory.miss_type_mach_latency_hist_seqr::samples       732748                      
system.ruby.IFETCH.Directory.miss_type_mach_latency_hist_seqr::mean   134.961547                      
system.ruby.IFETCH.Directory.miss_type_mach_latency_hist_seqr::gmean   122.613945                      
system.ruby.IFETCH.Directory.miss_type_mach_latency_hist_seqr::stdev    77.780180                      
system.ruby.IFETCH.Directory.miss_type_mach_latency_hist_seqr |      501122     68.39%     68.39% |      182916     24.96%     93.35% |       35548      4.85%     98.20% |        5460      0.75%     98.95% |        5519      0.75%     99.70% |        1754      0.24%     99.94% |         150      0.02%     99.96% |         252      0.03%    100.00% |          27      0.00%    100.00% |           0      0.00%    100.00%
system.ruby.IFETCH.Directory.miss_type_mach_latency_hist_seqr::total       732748                      
system.ruby.RMW_Read.L1Cache.miss_type_mach_latency_hist_seqr::bucket_size            8                      
system.ruby.RMW_Read.L1Cache.miss_type_mach_latency_hist_seqr::max_bucket           79                      
system.ruby.RMW_Read.L1Cache.miss_type_mach_latency_hist_seqr::samples          570                      
system.ruby.RMW_Read.L1Cache.miss_type_mach_latency_hist_seqr::mean    45.745614                      
system.ruby.RMW_Read.L1Cache.miss_type_mach_latency_hist_seqr::gmean    45.716090                      
system.ruby.RMW_Read.L1Cache.miss_type_mach_latency_hist_seqr::stdev     1.702946                      
system.ruby.RMW_Read.L1Cache.miss_type_mach_latency_hist_seqr |           0      0.00%      0.00% |           0      0.00%      0.00% |           0      0.00%      0.00% |           0      0.00%      0.00% |           0      0.00%      0.00% |         477     83.68%     83.68% |          92     16.14%     99.82% |           1      0.18%    100.00% |           0      0.00%    100.00% |           0      0.00%    100.00%
system.ruby.RMW_Read.L1Cache.miss_type_mach_latency_hist_seqr::total          570                      
system.ruby.RMW_Read.Directory.miss_type_mach_latency_hist_seqr::bucket_size          128                      
system.ruby.RMW_Read.Directory.miss_type_mach_latency_hist_seqr::max_bucket         1279                      
system.ruby.RMW_Read.Directory.miss_type_mach_latency_hist_seqr::samples       372214                      
system.ruby.RMW_Read.Directory.miss_type_mach_latency_hist_seqr::mean   122.096813                      
system.ruby.RMW_Read.Directory.miss_type_mach_latency_hist_seqr::gmean   104.707494                      
system.ruby.RMW_Read.Directory.miss_type_mach_latency_hist_seqr::stdev    77.449191                      
system.ruby.RMW_Read.Directory.miss_type_mach_latency_hist_seqr |      265092     71.22%     71.22% |       85710     23.03%     94.25% |       15804      4.25%     98.49% |        2477      0.67%     99.16% |        2324      0.62%     99.78% |         669      0.18%     99.96% |          56      0.02%     99.98% |          72      0.02%    100.00% |          10      0.00%    100.00% |           0      0.00%    100.00%
system.ruby.RMW_Read.Directory.miss_type_mach_latency_hist_seqr::total       372214                      
system.ruby.Locked_RMW_Read.L1Cache.miss_type_mach_latency_hist_seqr::bucket_size            8                      
system.ruby.Locked_RMW_Read.L1Cache.miss_type_mach_latency_hist_seqr::max_bucket           79                      
system.ruby.Locked_RMW_Read.L1Cache.miss_type_mach_latency_hist_seqr::samples         7315                      
system.ruby.Locked_RMW_Read.L1Cache.miss_type_mach_latency_hist_seqr::mean    46.087628                      
system.ruby.Locked_RMW_Read.L1Cache.miss_type_mach_latency_hist_seqr::gmean    46.054027                      
system.ruby.Locked_RMW_Read.L1Cache.miss_type_mach_latency_hist_seqr::stdev     1.784953                      
system.ruby.Locked_RMW_Read.L1Cache.miss_type_mach_latency_hist_seqr |           0      0.00%      0.00% |           0      0.00%      0.00% |           0      0.00%      0.00% |           0      0.00%      0.00% |           0      0.00%      0.00% |        5373     73.45%     73.45% |        1941     26.53%     99.99% |           1      0.01%    100.00% |           0      0.00%    100.00% |           0      0.00%    100.00%
system.ruby.Locked_RMW_Read.L1Cache.miss_type_mach_latency_hist_seqr::total         7315                      
system.ruby.Locked_RMW_Read.Directory.miss_type_mach_latency_hist_seqr::bucket_size          128                      
system.ruby.Locked_RMW_Read.Directory.miss_type_mach_latency_hist_seqr::max_bucket         1279                      
system.ruby.Locked_RMW_Read.Directory.miss_type_mach_latency_hist_seqr::samples        33712                      
system.ruby.Locked_RMW_Read.Directory.miss_type_mach_latency_hist_seqr::mean   144.888793                      
system.ruby.Locked_RMW_Read.Directory.miss_type_mach_latency_hist_seqr::gmean   133.288556                      
system.ruby.Locked_RMW_Read.Directory.miss_type_mach_latency_hist_seqr::stdev    77.452960                      
system.ruby.Locked_RMW_Read.Directory.miss_type_mach_latency_hist_seqr |       20334     60.32%     60.32% |       10689     31.71%     92.02% |        2003      5.94%     97.97% |         303      0.90%     98.86% |         290      0.86%     99.72% |          80      0.24%     99.96% |           3      0.01%     99.97% |           8      0.02%     99.99% |           2      0.01%    100.00% |           0      0.00%    100.00%
system.ruby.Locked_RMW_Read.Directory.miss_type_mach_latency_hist_seqr::total        33712                      
system.ruby.Directory_Controller.GETX        24373671      0.00%      0.00%
system.ruby.Directory_Controller.PUTX        23726173      0.00%      0.00%
system.ruby.Directory_Controller.PUTX_NotOwner            3      0.00%      0.00%
system.ruby.Directory_Controller.DMA_READ            2      0.00%      0.00%
system.ruby.Directory_Controller.DMA_WRITE          128      0.00%      0.00%
system.ruby.Directory_Controller.Memory_Data     23726381      0.00%      0.00%
system.ruby.Directory_Controller.Memory_Ack     23726301      0.00%      0.00%
system.ruby.Directory_Controller.I.GETX      23726381      0.00%      0.00%
system.ruby.Directory_Controller.I.DMA_WRITE          128      0.00%      0.00%
system.ruby.Directory_Controller.M.GETX        647198      0.00%      0.00%
system.ruby.Directory_Controller.M.PUTX      23726171      0.00%      0.00%
system.ruby.Directory_Controller.M.PUTX_NotOwner            3      0.00%      0.00%
system.ruby.Directory_Controller.M.DMA_READ            2      0.00%      0.00%
system.ruby.Directory_Controller.M_DRD.PUTX            2      0.00%      0.00%
system.ruby.Directory_Controller.M_DRDI.Memory_Ack            2      0.00%      0.00%
system.ruby.Directory_Controller.IM.GETX           92      0.00%      0.00%
system.ruby.Directory_Controller.IM.Memory_Data     23726381      0.00%      0.00%
system.ruby.Directory_Controller.MI.Memory_Ack     23726171      0.00%      0.00%
system.ruby.Directory_Controller.ID_W.Memory_Ack          128      0.00%      0.00%
system.ruby.DMA_Controller.ReadRequest   |           2    100.00%    100.00% |           0      0.00%    100.00%
system.ruby.DMA_Controller.ReadRequest::total            2                      
system.ruby.DMA_Controller.WriteRequest  |         128    100.00%    100.00% |           0      0.00%    100.00%
system.ruby.DMA_Controller.WriteRequest::total          128                      
system.ruby.DMA_Controller.Data          |           2    100.00%    100.00% |           0      0.00%    100.00%
system.ruby.DMA_Controller.Data::total              2                      
system.ruby.DMA_Controller.Ack           |         128    100.00%    100.00% |           0      0.00%    100.00%
system.ruby.DMA_Controller.Ack::total             128                      
system.ruby.DMA_Controller.READY.ReadRequest |           2    100.00%    100.00% |           0      0.00%    100.00%
system.ruby.DMA_Controller.READY.ReadRequest::total            2                      
system.ruby.DMA_Controller.READY.WriteRequest |         128    100.00%    100.00% |           0      0.00%    100.00%
system.ruby.DMA_Controller.READY.WriteRequest::total          128                      
system.ruby.DMA_Controller.BUSY_RD.Data  |           2    100.00%    100.00% |           0      0.00%    100.00%
system.ruby.DMA_Controller.BUSY_RD.Data::total            2                      
system.ruby.DMA_Controller.BUSY_WR.Ack   |         128    100.00%    100.00% |           0      0.00%    100.00%
system.ruby.DMA_Controller.BUSY_WR.Ack::total          128                      
system.ruby.L1Cache_Controller.Load      |     3697381      3.98%      3.98% |     1138230      1.22%      5.20% |    87105906     93.74%     98.95% |      977483      1.05%    100.00%
system.ruby.L1Cache_Controller.Load::total     92919000                      
system.ruby.L1Cache_Controller.Ifetch    |    21925188      2.03%      2.03% |     5436438      0.50%      2.53% |  1049826906     97.03%     99.56% |     4728812      0.44%    100.00%
system.ruby.L1Cache_Controller.Ifetch::total   1081917344                      
system.ruby.L1Cache_Controller.Store     |     2897384      3.44%      3.44% |      857558      1.02%      4.45% |    79856688     94.69%     99.14% |      723166      0.86%    100.00%
system.ruby.L1Cache_Controller.Store::total     84334796                      
system.ruby.L1Cache_Controller.Data      |      430297      1.77%      1.77% |      251219      1.03%      2.80% |    23452273     96.22%     99.02% |      239790      0.98%    100.00%
system.ruby.L1Cache_Controller.Data::total     24373579                      
system.ruby.L1Cache_Controller.Fwd_GETX  |      195189     30.16%     30.16% |      205401     31.74%     61.90% |       53387      8.25%     70.14% |      193221     29.86%    100.00%
system.ruby.L1Cache_Controller.Fwd_GETX::total       647198                      
system.ruby.L1Cache_Controller.Inv       |           2     50.00%     50.00% |           0      0.00%     50.00% |           0      0.00%     50.00% |           2     50.00%    100.00%
system.ruby.L1Cache_Controller.Inv::total            4                      
system.ruby.L1Cache_Controller.Replacement |      250478      1.05%      1.05% |       63506      0.27%      1.32% |    23421761     98.42%     99.74% |       62962      0.26%    100.00%
system.ruby.L1Cache_Controller.Replacement::total     23798707                      
system.ruby.L1Cache_Controller.Writeback_Ack |      235244      0.99%      0.99% |       45655      0.19%      1.18% |    23398349     98.62%     99.80% |       46925      0.20%    100.00%
system.ruby.L1Cache_Controller.Writeback_Ack::total     23726173                      
system.ruby.L1Cache_Controller.Writeback_Nack |           1     33.33%     33.33% |           1     33.33%     66.67% |           1     33.33%    100.00% |           0      0.00%    100.00%
system.ruby.L1Cache_Controller.Writeback_Nack::total            3                      
system.ruby.L1Cache_Controller.I.Load    |      171453      1.25%      1.25% |       56390      0.41%      1.66% |    13448402     97.93%     99.59% |       56613      0.41%    100.00%
system.ruby.L1Cache_Controller.I.Load::total     13732858                      
system.ruby.L1Cache_Controller.I.Ifetch  |      193646     21.29%     21.29% |      182154     20.02%     41.31% |      360254     39.60%     80.91% |      173668     19.09%    100.00%
system.ruby.L1Cache_Controller.I.Ifetch::total       909722                      
system.ruby.L1Cache_Controller.I.Store   |       65198      0.67%      0.67% |       12675      0.13%      0.80% |     9643617     99.10%     99.90% |        9509      0.10%    100.00%
system.ruby.L1Cache_Controller.I.Store::total      9730999                      
system.ruby.L1Cache_Controller.I.Replacement |       15234     21.00%     21.00% |       17850     24.61%     45.61% |       23411     32.28%     77.89% |       16038     22.11%    100.00%
system.ruby.L1Cache_Controller.I.Replacement::total        72533                      
system.ruby.L1Cache_Controller.II.Writeback_Nack |           1     33.33%     33.33% |           1     33.33%     66.67% |           1     33.33%    100.00% |           0      0.00%    100.00%
system.ruby.L1Cache_Controller.II.Writeback_Nack::total            3                      
system.ruby.L1Cache_Controller.M.Load    |     3525928      4.45%      4.45% |     1081840      1.37%      5.82% |    73657504     93.02%     98.84% |      920870      1.16%    100.00%
system.ruby.L1Cache_Controller.M.Load::total     79186142                      
system.ruby.L1Cache_Controller.M.Ifetch  |    21731542      2.01%      2.01% |     5254284      0.49%      2.50% |  1049466652     97.08%     99.58% |     4555144      0.42%    100.00%
system.ruby.L1Cache_Controller.M.Ifetch::total   1081007622                      
system.ruby.L1Cache_Controller.M.Store   |     2832186      3.80%      3.80% |      844883      1.13%      4.93% |    70213071     94.11%     99.04% |      713657      0.96%    100.00%
system.ruby.L1Cache_Controller.M.Store::total     74603797                      
system.ruby.L1Cache_Controller.M.Fwd_GETX |      195188     30.16%     30.16% |      205400     31.74%     61.90% |       53386      8.25%     70.14% |      193221     29.86%    100.00%
system.ruby.L1Cache_Controller.M.Fwd_GETX::total       647195                      
system.ruby.L1Cache_Controller.M.Inv     |           1     50.00%     50.00% |           0      0.00%     50.00% |           0      0.00%     50.00% |           1     50.00%    100.00%
system.ruby.L1Cache_Controller.M.Inv::total            2                      
system.ruby.L1Cache_Controller.M.Replacement |      235244      0.99%      0.99% |       45656      0.19%      1.18% |    23398350     98.62%     99.80% |       46924      0.20%    100.00%
system.ruby.L1Cache_Controller.M.Replacement::total     23726174                      
system.ruby.L1Cache_Controller.MI.Fwd_GETX |           1     33.33%     33.33% |           1     33.33%     66.67% |           1     33.33%    100.00% |           0      0.00%    100.00%
system.ruby.L1Cache_Controller.MI.Fwd_GETX::total            3                      
system.ruby.L1Cache_Controller.MI.Inv    |           1     50.00%     50.00% |           0      0.00%     50.00% |           0      0.00%     50.00% |           1     50.00%    100.00%
system.ruby.L1Cache_Controller.MI.Inv::total            2                      
system.ruby.L1Cache_Controller.MI.Writeback_Ack |      235244      0.99%      0.99% |       45655      0.19%      1.18% |    23398349     98.62%     99.80% |       46925      0.20%    100.00%
system.ruby.L1Cache_Controller.MI.Writeback_Ack::total     23726173                      
system.ruby.L1Cache_Controller.IS.Data   |      365099      2.49%      2.49% |      238544      1.63%      4.12% |    13808656     94.30%     98.43% |      230281      1.57%    100.00%
system.ruby.L1Cache_Controller.IS.Data::total     14642580                      
system.ruby.L1Cache_Controller.IM.Data   |       65198      0.67%      0.67% |       12675      0.13%      0.80% |     9643617     99.10%     99.90% |        9509      0.10%    100.00%
system.ruby.L1Cache_Controller.IM.Data::total      9730999                      

---------- End Simulation Statistics   ----------
