
---------- Begin Simulation Statistics ----------
sim_seconds                                  1.184763                       # Number of seconds simulated
sim_ticks                                1184762596000                       # Number of ticks simulated
final_tick                               53587226051501                       # Number of ticks from beginning of simulation (restored from checkpoints and never reset)
sim_freq                                 1000000000000                       # Frequency of simulated ticks
host_inst_rate                                 132800                       # Simulator instruction rate (inst/s)
host_op_rate                                   177659                       # Simulator op (including micro ops) rate (op/s)
host_tick_rate                              290606120                       # Simulator tick rate (ticks/s)
host_mem_usage                                1808140                       # Number of bytes of host memory used
host_seconds                                  4076.87                       # Real time elapsed on the host
sim_insts                                   541407750                       # Number of instructions simulated
sim_ops                                     724290427                       # Number of ops (including micro ops) simulated
system.voltage_domain.voltage                       1                       # Voltage in Volts
system.clk_domain.clock                          1000                       # Clock period in ticks
system.mem_ctrls.bytes_read::ruby.dir_cntrl0    171173696                       # Number of bytes read from this memory
system.mem_ctrls.bytes_read::total          171173696                       # Number of bytes read from this memory
system.mem_ctrls.bytes_written::ruby.dir_cntrl0    100958976                       # Number of bytes written to this memory
system.mem_ctrls.bytes_written::total       100958976                       # Number of bytes written to this memory
system.mem_ctrls.num_reads::ruby.dir_cntrl0      2674589                       # Number of read requests responded to by this memory
system.mem_ctrls.num_reads::total             2674589                       # Number of read requests responded to by this memory
system.mem_ctrls.num_writes::ruby.dir_cntrl0      1577484                       # Number of write requests responded to by this memory
system.mem_ctrls.num_writes::total            1577484                       # Number of write requests responded to by this memory
system.mem_ctrls.bw_read::ruby.dir_cntrl0    144479321                       # Total read bandwidth from this memory (bytes/s)
system.mem_ctrls.bw_read::total             144479321                       # Total read bandwidth from this memory (bytes/s)
system.mem_ctrls.bw_write::ruby.dir_cntrl0     85214520                       # Write bandwidth from this memory (bytes/s)
system.mem_ctrls.bw_write::total             85214520                       # Write bandwidth from this memory (bytes/s)
system.mem_ctrls.bw_total::ruby.dir_cntrl0    229693842                       # Total bandwidth to/from this memory (bytes/s)
system.mem_ctrls.bw_total::total            229693842                       # Total bandwidth to/from this memory (bytes/s)
system.mem_ctrls.readReqs                     2674589                       # Number of read requests accepted
system.mem_ctrls.writeReqs                    1577484                       # Number of write requests accepted
system.mem_ctrls.readBursts                   2674589                       # Number of DRAM read bursts, including those serviced by the write queue
system.mem_ctrls.writeBursts                  1577484                       # Number of DRAM write bursts, including those merged in the write queue
system.mem_ctrls.bytesReadDRAM              171110784                       # Total number of bytes read from DRAM
system.mem_ctrls.bytesReadWrQ                   62912                       # Total number of bytes read from write queue
system.mem_ctrls.bytesWritten               100959744                       # Total number of bytes written to DRAM
system.mem_ctrls.bytesReadSys               171173696                       # Total read bytes from the system interface side
system.mem_ctrls.bytesWrittenSys            100958976                       # Total written bytes from the system interface side
system.mem_ctrls.servicedByWrQ                    983                       # Number of DRAM read bursts serviced by the write queue
system.mem_ctrls.mergedWrBursts                     0                       # Number of DRAM write bursts merged with an existing one
system.mem_ctrls.neitherReadNorWriteReqs            0                       # Number of requests that are neither read nor write
system.mem_ctrls.perBankRdBursts::0            168683                       # Per bank write bursts
system.mem_ctrls.perBankRdBursts::1            171742                       # Per bank write bursts
system.mem_ctrls.perBankRdBursts::2            165160                       # Per bank write bursts
system.mem_ctrls.perBankRdBursts::3            165695                       # Per bank write bursts
system.mem_ctrls.perBankRdBursts::4            168359                       # Per bank write bursts
system.mem_ctrls.perBankRdBursts::5            166989                       # Per bank write bursts
system.mem_ctrls.perBankRdBursts::6            170327                       # Per bank write bursts
system.mem_ctrls.perBankRdBursts::7            165726                       # Per bank write bursts
system.mem_ctrls.perBankRdBursts::8            167893                       # Per bank write bursts
system.mem_ctrls.perBankRdBursts::9            166391                       # Per bank write bursts
system.mem_ctrls.perBankRdBursts::10           165833                       # Per bank write bursts
system.mem_ctrls.perBankRdBursts::11           165063                       # Per bank write bursts
system.mem_ctrls.perBankRdBursts::12           165545                       # Per bank write bursts
system.mem_ctrls.perBankRdBursts::13           165628                       # Per bank write bursts
system.mem_ctrls.perBankRdBursts::14           166636                       # Per bank write bursts
system.mem_ctrls.perBankRdBursts::15           167936                       # Per bank write bursts
system.mem_ctrls.perBankWrBursts::0             99078                       # Per bank write bursts
system.mem_ctrls.perBankWrBursts::1            103055                       # Per bank write bursts
system.mem_ctrls.perBankWrBursts::2             97988                       # Per bank write bursts
system.mem_ctrls.perBankWrBursts::3             97292                       # Per bank write bursts
system.mem_ctrls.perBankWrBursts::4             98576                       # Per bank write bursts
system.mem_ctrls.perBankWrBursts::5             98693                       # Per bank write bursts
system.mem_ctrls.perBankWrBursts::6            100557                       # Per bank write bursts
system.mem_ctrls.perBankWrBursts::7             97739                       # Per bank write bursts
system.mem_ctrls.perBankWrBursts::8            100117                       # Per bank write bursts
system.mem_ctrls.perBankWrBursts::9             97562                       # Per bank write bursts
system.mem_ctrls.perBankWrBursts::10            98180                       # Per bank write bursts
system.mem_ctrls.perBankWrBursts::11            97541                       # Per bank write bursts
system.mem_ctrls.perBankWrBursts::12            97767                       # Per bank write bursts
system.mem_ctrls.perBankWrBursts::13            97082                       # Per bank write bursts
system.mem_ctrls.perBankWrBursts::14            97982                       # Per bank write bursts
system.mem_ctrls.perBankWrBursts::15            98287                       # Per bank write bursts
system.mem_ctrls.numRdRetry                         0                       # Number of times read queue was full causing retry
system.mem_ctrls.numWrRetry                         0                       # Number of times write queue was full causing retry
system.mem_ctrls.totGap                  1184762523000                       # Total gap between requests
system.mem_ctrls.readPktSize::0                     0                       # Read request sizes (log2)
system.mem_ctrls.readPktSize::1                     0                       # Read request sizes (log2)
system.mem_ctrls.readPktSize::2                     0                       # Read request sizes (log2)
system.mem_ctrls.readPktSize::3                     0                       # Read request sizes (log2)
system.mem_ctrls.readPktSize::4                     0                       # Read request sizes (log2)
system.mem_ctrls.readPktSize::5                     0                       # Read request sizes (log2)
system.mem_ctrls.readPktSize::6               2674589                       # Read request sizes (log2)
system.mem_ctrls.writePktSize::0                    0                       # Write request sizes (log2)
system.mem_ctrls.writePktSize::1                    0                       # Write request sizes (log2)
system.mem_ctrls.writePktSize::2                    0                       # Write request sizes (log2)
system.mem_ctrls.writePktSize::3                    0                       # Write request sizes (log2)
system.mem_ctrls.writePktSize::4                    0                       # Write request sizes (log2)
system.mem_ctrls.writePktSize::5                    0                       # Write request sizes (log2)
system.mem_ctrls.writePktSize::6              1577484                       # Write request sizes (log2)
system.mem_ctrls.rdQLenPdf::0                 2663730                       # What read queue length does an incoming req see
system.mem_ctrls.rdQLenPdf::1                    9875                       # What read queue length does an incoming req see
system.mem_ctrls.rdQLenPdf::2                       1                       # What read queue length does an incoming req see
system.mem_ctrls.rdQLenPdf::3                       0                       # What read queue length does an incoming req see
system.mem_ctrls.rdQLenPdf::4                       0                       # What read queue length does an incoming req see
system.mem_ctrls.rdQLenPdf::5                       0                       # What read queue length does an incoming req see
system.mem_ctrls.rdQLenPdf::6                       0                       # What read queue length does an incoming req see
system.mem_ctrls.rdQLenPdf::7                       0                       # What read queue length does an incoming req see
system.mem_ctrls.rdQLenPdf::8                       0                       # What read queue length does an incoming req see
system.mem_ctrls.rdQLenPdf::9                       0                       # What read queue length does an incoming req see
system.mem_ctrls.rdQLenPdf::10                      0                       # What read queue length does an incoming req see
system.mem_ctrls.rdQLenPdf::11                      0                       # What read queue length does an incoming req see
system.mem_ctrls.rdQLenPdf::12                      0                       # What read queue length does an incoming req see
system.mem_ctrls.rdQLenPdf::13                      0                       # What read queue length does an incoming req see
system.mem_ctrls.rdQLenPdf::14                      0                       # What read queue length does an incoming req see
system.mem_ctrls.rdQLenPdf::15                      0                       # What read queue length does an incoming req see
system.mem_ctrls.rdQLenPdf::16                      0                       # What read queue length does an incoming req see
system.mem_ctrls.rdQLenPdf::17                      0                       # What read queue length does an incoming req see
system.mem_ctrls.rdQLenPdf::18                      0                       # What read queue length does an incoming req see
system.mem_ctrls.rdQLenPdf::19                      0                       # What read queue length does an incoming req see
system.mem_ctrls.rdQLenPdf::20                      0                       # What read queue length does an incoming req see
system.mem_ctrls.rdQLenPdf::21                      0                       # What read queue length does an incoming req see
system.mem_ctrls.rdQLenPdf::22                      0                       # What read queue length does an incoming req see
system.mem_ctrls.rdQLenPdf::23                      0                       # What read queue length does an incoming req see
system.mem_ctrls.rdQLenPdf::24                      0                       # What read queue length does an incoming req see
system.mem_ctrls.rdQLenPdf::25                      0                       # What read queue length does an incoming req see
system.mem_ctrls.rdQLenPdf::26                      0                       # What read queue length does an incoming req see
system.mem_ctrls.rdQLenPdf::27                      0                       # What read queue length does an incoming req see
system.mem_ctrls.rdQLenPdf::28                      0                       # What read queue length does an incoming req see
system.mem_ctrls.rdQLenPdf::29                      0                       # What read queue length does an incoming req see
system.mem_ctrls.rdQLenPdf::30                      0                       # What read queue length does an incoming req see
system.mem_ctrls.rdQLenPdf::31                      0                       # What read queue length does an incoming req see
system.mem_ctrls.wrQLenPdf::0                       0                       # What write queue length does an incoming req see
system.mem_ctrls.wrQLenPdf::1                       0                       # What write queue length does an incoming req see
system.mem_ctrls.wrQLenPdf::2                       0                       # What write queue length does an incoming req see
system.mem_ctrls.wrQLenPdf::3                       0                       # What write queue length does an incoming req see
system.mem_ctrls.wrQLenPdf::4                       0                       # What write queue length does an incoming req see
system.mem_ctrls.wrQLenPdf::5                       0                       # What write queue length does an incoming req see
system.mem_ctrls.wrQLenPdf::6                       0                       # What write queue length does an incoming req see
system.mem_ctrls.wrQLenPdf::7                       0                       # What write queue length does an incoming req see
system.mem_ctrls.wrQLenPdf::8                       0                       # What write queue length does an incoming req see
system.mem_ctrls.wrQLenPdf::9                       0                       # What write queue length does an incoming req see
system.mem_ctrls.wrQLenPdf::10                      0                       # What write queue length does an incoming req see
system.mem_ctrls.wrQLenPdf::11                      0                       # What write queue length does an incoming req see
system.mem_ctrls.wrQLenPdf::12                      0                       # What write queue length does an incoming req see
system.mem_ctrls.wrQLenPdf::13                      0                       # What write queue length does an incoming req see
system.mem_ctrls.wrQLenPdf::14                      0                       # What write queue length does an incoming req see
system.mem_ctrls.wrQLenPdf::15                   1004                       # What write queue length does an incoming req see
system.mem_ctrls.wrQLenPdf::16                   1178                       # What write queue length does an incoming req see
system.mem_ctrls.wrQLenPdf::17                  97199                       # What write queue length does an incoming req see
system.mem_ctrls.wrQLenPdf::18                  98507                       # What write queue length does an incoming req see
system.mem_ctrls.wrQLenPdf::19                  98538                       # What write queue length does an incoming req see
system.mem_ctrls.wrQLenPdf::20                  98554                       # What write queue length does an incoming req see
system.mem_ctrls.wrQLenPdf::21                  98565                       # What write queue length does an incoming req see
system.mem_ctrls.wrQLenPdf::22                  98553                       # What write queue length does an incoming req see
system.mem_ctrls.wrQLenPdf::23                  98577                       # What write queue length does an incoming req see
system.mem_ctrls.wrQLenPdf::24                  98580                       # What write queue length does an incoming req see
system.mem_ctrls.wrQLenPdf::25                  98598                       # What write queue length does an incoming req see
system.mem_ctrls.wrQLenPdf::26                  98578                       # What write queue length does an incoming req see
system.mem_ctrls.wrQLenPdf::27                  98545                       # What write queue length does an incoming req see
system.mem_ctrls.wrQLenPdf::28                  98537                       # What write queue length does an incoming req see
system.mem_ctrls.wrQLenPdf::29                  98519                       # What write queue length does an incoming req see
system.mem_ctrls.wrQLenPdf::30                  98498                       # What write queue length does an incoming req see
system.mem_ctrls.wrQLenPdf::31                  98479                       # What write queue length does an incoming req see
system.mem_ctrls.wrQLenPdf::32                  98466                       # What write queue length does an incoming req see
system.mem_ctrls.wrQLenPdf::33                      9                       # What write queue length does an incoming req see
system.mem_ctrls.wrQLenPdf::34                      0                       # What write queue length does an incoming req see
system.mem_ctrls.wrQLenPdf::35                      0                       # What write queue length does an incoming req see
system.mem_ctrls.wrQLenPdf::36                      0                       # What write queue length does an incoming req see
system.mem_ctrls.wrQLenPdf::37                      0                       # What write queue length does an incoming req see
system.mem_ctrls.wrQLenPdf::38                      0                       # What write queue length does an incoming req see
system.mem_ctrls.wrQLenPdf::39                      0                       # What write queue length does an incoming req see
system.mem_ctrls.wrQLenPdf::40                      0                       # What write queue length does an incoming req see
system.mem_ctrls.wrQLenPdf::41                      0                       # What write queue length does an incoming req see
system.mem_ctrls.wrQLenPdf::42                      0                       # What write queue length does an incoming req see
system.mem_ctrls.wrQLenPdf::43                      0                       # What write queue length does an incoming req see
system.mem_ctrls.wrQLenPdf::44                      0                       # What write queue length does an incoming req see
system.mem_ctrls.wrQLenPdf::45                      0                       # What write queue length does an incoming req see
system.mem_ctrls.wrQLenPdf::46                      0                       # What write queue length does an incoming req see
system.mem_ctrls.wrQLenPdf::47                      0                       # What write queue length does an incoming req see
system.mem_ctrls.wrQLenPdf::48                      0                       # What write queue length does an incoming req see
system.mem_ctrls.wrQLenPdf::49                      0                       # What write queue length does an incoming req see
system.mem_ctrls.wrQLenPdf::50                      0                       # What write queue length does an incoming req see
system.mem_ctrls.wrQLenPdf::51                      0                       # What write queue length does an incoming req see
system.mem_ctrls.wrQLenPdf::52                      0                       # What write queue length does an incoming req see
system.mem_ctrls.wrQLenPdf::53                      0                       # What write queue length does an incoming req see
system.mem_ctrls.wrQLenPdf::54                      0                       # What write queue length does an incoming req see
system.mem_ctrls.wrQLenPdf::55                      0                       # What write queue length does an incoming req see
system.mem_ctrls.wrQLenPdf::56                      0                       # What write queue length does an incoming req see
system.mem_ctrls.wrQLenPdf::57                      0                       # What write queue length does an incoming req see
system.mem_ctrls.wrQLenPdf::58                      0                       # What write queue length does an incoming req see
system.mem_ctrls.wrQLenPdf::59                      0                       # What write queue length does an incoming req see
system.mem_ctrls.wrQLenPdf::60                      0                       # What write queue length does an incoming req see
system.mem_ctrls.wrQLenPdf::61                      0                       # What write queue length does an incoming req see
system.mem_ctrls.wrQLenPdf::62                      0                       # What write queue length does an incoming req see
system.mem_ctrls.wrQLenPdf::63                      0                       # What write queue length does an incoming req see
system.mem_ctrls.bytesPerActivate::samples      2070547                       # Bytes accessed per row activation
system.mem_ctrls.bytesPerActivate::mean    131.400284                       # Bytes accessed per row activation
system.mem_ctrls.bytesPerActivate::gmean    90.869035                       # Bytes accessed per row activation
system.mem_ctrls.bytesPerActivate::stdev   180.833550                       # Bytes accessed per row activation
system.mem_ctrls.bytesPerActivate::0-127      1502232     72.55%     72.55% # Bytes accessed per row activation
system.mem_ctrls.bytesPerActivate::128-255       347200     16.77%     89.32% # Bytes accessed per row activation
system.mem_ctrls.bytesPerActivate::256-383        65516      3.16%     92.49% # Bytes accessed per row activation
system.mem_ctrls.bytesPerActivate::384-511        36808      1.78%     94.26% # Bytes accessed per row activation
system.mem_ctrls.bytesPerActivate::512-639        30984      1.50%     95.76% # Bytes accessed per row activation
system.mem_ctrls.bytesPerActivate::640-767        22173      1.07%     96.83% # Bytes accessed per row activation
system.mem_ctrls.bytesPerActivate::768-895        15969      0.77%     97.60% # Bytes accessed per row activation
system.mem_ctrls.bytesPerActivate::896-1023        12907      0.62%     98.22% # Bytes accessed per row activation
system.mem_ctrls.bytesPerActivate::1024-1151        36758      1.78%    100.00% # Bytes accessed per row activation
system.mem_ctrls.bytesPerActivate::total      2070547                       # Bytes accessed per row activation
system.mem_ctrls.rdPerTurnAround::samples        98453                       # Reads before turning the bus around for writes
system.mem_ctrls.rdPerTurnAround::mean      27.156877                       # Reads before turning the bus around for writes
system.mem_ctrls.rdPerTurnAround::gmean     24.574685                       # Reads before turning the bus around for writes
system.mem_ctrls.rdPerTurnAround::stdev     18.052128                       # Reads before turning the bus around for writes
system.mem_ctrls.rdPerTurnAround::0-15            149      0.15%      0.15% # Reads before turning the bus around for writes
system.mem_ctrls.rdPerTurnAround::16-31         70998     72.11%     72.26% # Reads before turning the bus around for writes
system.mem_ctrls.rdPerTurnAround::32-47         23061     23.42%     95.69% # Reads before turning the bus around for writes
system.mem_ctrls.rdPerTurnAround::48-63          2126      2.16%     97.85% # Reads before turning the bus around for writes
system.mem_ctrls.rdPerTurnAround::64-79           777      0.79%     98.64% # Reads before turning the bus around for writes
system.mem_ctrls.rdPerTurnAround::80-95           350      0.36%     98.99% # Reads before turning the bus around for writes
system.mem_ctrls.rdPerTurnAround::96-111          166      0.17%     99.16% # Reads before turning the bus around for writes
system.mem_ctrls.rdPerTurnAround::112-127          120      0.12%     99.28% # Reads before turning the bus around for writes
system.mem_ctrls.rdPerTurnAround::128-143          126      0.13%     99.41% # Reads before turning the bus around for writes
system.mem_ctrls.rdPerTurnAround::144-159           96      0.10%     99.51% # Reads before turning the bus around for writes
system.mem_ctrls.rdPerTurnAround::160-175           76      0.08%     99.59% # Reads before turning the bus around for writes
system.mem_ctrls.rdPerTurnAround::176-191          119      0.12%     99.71% # Reads before turning the bus around for writes
system.mem_ctrls.rdPerTurnAround::192-207          122      0.12%     99.83% # Reads before turning the bus around for writes
system.mem_ctrls.rdPerTurnAround::208-223           64      0.07%     99.90% # Reads before turning the bus around for writes
system.mem_ctrls.rdPerTurnAround::224-239           20      0.02%     99.92% # Reads before turning the bus around for writes
system.mem_ctrls.rdPerTurnAround::240-255            8      0.01%     99.92% # Reads before turning the bus around for writes
system.mem_ctrls.rdPerTurnAround::256-271           16      0.02%     99.94% # Reads before turning the bus around for writes
system.mem_ctrls.rdPerTurnAround::272-287           46      0.05%     99.99% # Reads before turning the bus around for writes
system.mem_ctrls.rdPerTurnAround::288-303            8      0.01%     99.99% # Reads before turning the bus around for writes
system.mem_ctrls.rdPerTurnAround::304-319            1      0.00%    100.00% # Reads before turning the bus around for writes
system.mem_ctrls.rdPerTurnAround::336-351            1      0.00%    100.00% # Reads before turning the bus around for writes
system.mem_ctrls.rdPerTurnAround::352-367            1      0.00%    100.00% # Reads before turning the bus around for writes
system.mem_ctrls.rdPerTurnAround::368-383            1      0.00%    100.00% # Reads before turning the bus around for writes
system.mem_ctrls.rdPerTurnAround::432-447            1      0.00%    100.00% # Reads before turning the bus around for writes
system.mem_ctrls.rdPerTurnAround::total         98453                       # Reads before turning the bus around for writes
system.mem_ctrls.wrPerTurnAround::samples        98453                       # Writes before turning the bus around for reads
system.mem_ctrls.wrPerTurnAround::mean      16.022833                       # Writes before turning the bus around for reads
system.mem_ctrls.wrPerTurnAround::gmean     16.021541                       # Writes before turning the bus around for reads
system.mem_ctrls.wrPerTurnAround::stdev      0.211613                       # Writes before turning the bus around for reads
system.mem_ctrls.wrPerTurnAround::16            97296     98.82%     98.82% # Writes before turning the bus around for reads
system.mem_ctrls.wrPerTurnAround::17               80      0.08%     98.91% # Writes before turning the bus around for reads
system.mem_ctrls.wrPerTurnAround::18             1064      1.08%     99.99% # Writes before turning the bus around for reads
system.mem_ctrls.wrPerTurnAround::19               12      0.01%    100.00% # Writes before turning the bus around for reads
system.mem_ctrls.wrPerTurnAround::20                1      0.00%    100.00% # Writes before turning the bus around for reads
system.mem_ctrls.wrPerTurnAround::total         98453                       # Writes before turning the bus around for reads
system.mem_ctrls.totQLat                  62929468786                       # Total ticks spent queuing
system.mem_ctrls.totMemAccLat            113059581286                       # Total ticks spent from burst creation until serviced by the DRAM
system.mem_ctrls.totBusLat                13368030000                       # Total ticks spent in databus transfers
system.mem_ctrls.avgQLat                     23537.30                       # Average queueing delay per DRAM burst
system.mem_ctrls.avgBusLat                    5000.00                       # Average bus latency per DRAM burst
system.mem_ctrls.avgMemAccLat                42287.30                       # Average memory access latency per DRAM burst
system.mem_ctrls.avgRdBW                       144.43                       # Average DRAM read bandwidth in MiByte/s
system.mem_ctrls.avgWrBW                        85.22                       # Average achieved write bandwidth in MiByte/s
system.mem_ctrls.avgRdBWSys                    144.48                       # Average system read bandwidth in MiByte/s
system.mem_ctrls.avgWrBWSys                     85.21                       # Average system write bandwidth in MiByte/s
system.mem_ctrls.peakBW                      12800.00                       # Theoretical peak bandwidth in MiByte/s
system.mem_ctrls.busUtil                         1.79                       # Data bus utilization in percentage
system.mem_ctrls.busUtilRead                     1.13                       # Data bus utilization in percentage for reads
system.mem_ctrls.busUtilWrite                    0.67                       # Data bus utilization in percentage for writes
system.mem_ctrls.avgRdQLen                       1.00                       # Average read queue length when enqueuing
system.mem_ctrls.avgWrQLen                      25.71                       # Average write queue length when enqueuing
system.mem_ctrls.readRowHits                  1369996                       # Number of row buffer hits during reads
system.mem_ctrls.writeRowHits                  810556                       # Number of row buffer hits during writes
system.mem_ctrls.readRowHitRate                 51.24                       # Row buffer hit rate for reads
system.mem_ctrls.writeRowHitRate                51.38                       # Row buffer hit rate for writes
system.mem_ctrls.avgGap                     278631.75                       # Average gap between requests
system.mem_ctrls.pageHitRate                    51.29                       # Row buffer hit rate, read and write combined
system.mem_ctrls_0.actEnergy               7909990200                       # Energy for activate commands per rank (pJ)
system.mem_ctrls_0.preEnergy               4315966875                       # Energy for precharge commands per rank (pJ)
system.mem_ctrls_0.readEnergy             10577650200                       # Energy for read commands per rank (pJ)
system.mem_ctrls_0.writeEnergy             5141705040                       # Energy for write commands per rank (pJ)
system.mem_ctrls_0.refreshEnergy          77820868320                       # Energy for refresh commands per rank (pJ)
system.mem_ctrls_0.actBackEnergy         261400465845                       # Energy for active background per rank (pJ)
system.mem_ctrls_0.preBackEnergy         485582030250                       # Energy for precharge background per rank (pJ)
system.mem_ctrls_0.totalEnergy           852748676730                       # Total energy per rank (pJ)
system.mem_ctrls_0.averagePower            715.712730                       # Core power per rank (mW)
system.mem_ctrls_0.memoryStateTime::IDLE 798358849500                       # Time in different power states
system.mem_ctrls_0.memoryStateTime::REF   39561860000                       # Time in different power states
system.mem_ctrls_0.memoryStateTime::PRE_PDN            0                       # Time in different power states
system.mem_ctrls_0.memoryStateTime::ACT  346841858000                       # Time in different power states
system.mem_ctrls_0.memoryStateTime::ACT_PDN            0                       # Time in different power states
system.mem_ctrls_1.actEnergy               7786474920                       # Energy for activate commands per rank (pJ)
system.mem_ctrls_1.preEnergy               4248572625                       # Energy for precharge commands per rank (pJ)
system.mem_ctrls_1.readEnergy             10478621400                       # Energy for read commands per rank (pJ)
system.mem_ctrls_1.writeEnergy             5085614160                       # Energy for write commands per rank (pJ)
system.mem_ctrls_1.refreshEnergy          77820868320                       # Energy for refresh commands per rank (pJ)
system.mem_ctrls_1.actBackEnergy         259972185780                       # Energy for active background per rank (pJ)
system.mem_ctrls_1.preBackEnergy         486834907500                       # Energy for precharge background per rank (pJ)
system.mem_ctrls_1.totalEnergy           852227244705                       # Total energy per rank (pJ)
system.mem_ctrls_1.averagePower            715.275091                       # Core power per rank (mW)
system.mem_ctrls_1.memoryStateTime::IDLE 800810303500                       # Time in different power states
system.mem_ctrls_1.memoryStateTime::REF   39561860000                       # Time in different power states
system.mem_ctrls_1.memoryStateTime::PRE_PDN            0                       # Time in different power states
system.mem_ctrls_1.memoryStateTime::ACT  344395079000                       # Time in different power states
system.mem_ctrls_1.memoryStateTime::ACT_PDN            0                       # Time in different power states
system.cpu_voltage_domain.voltage                   1                       # Voltage in Volts
system.cpu_clk_domain.clock                       500                       # Clock period in ticks
system.cpu0.apic_clk_domain.clock                8000                       # Clock period in ticks
system.cpu0.numCycles                      2367524688                       # number of cpu cycles simulated
system.cpu0.numWorkItemsStarted                     0                       # number of work items this cpu started
system.cpu0.numWorkItemsCompleted                   0                       # number of work items this cpu completed
system.cpu0.kern.inst.arm                           0                       # number of arm instructions executed
system.cpu0.kern.inst.quiesce                       0                       # number of quiesce instructions executed
system.cpu0.committedInsts                    3019453                       # Number of instructions committed
system.cpu0.committedOps                      6030576                       # Number of ops (including micro ops) committed
system.cpu0.num_int_alu_accesses              5925757                       # Number of integer alu accesses
system.cpu0.num_fp_alu_accesses                  1826                       # Number of float alu accesses
system.cpu0.num_func_calls                     158620                       # number of times a function call or return occured
system.cpu0.num_conditional_control_insts       499912                       # number of instructions that are conditional controls
system.cpu0.num_int_insts                     5925757                       # number of integer instructions
system.cpu0.num_fp_insts                         1826                       # number of float instructions
system.cpu0.num_int_register_reads           11803914                       # number of times the integer registers were read
system.cpu0.num_int_register_writes           4814963                       # number of times the integer registers were written
system.cpu0.num_fp_register_reads                3068                       # number of times the floating registers were read
system.cpu0.num_fp_register_writes               1448                       # number of times the floating registers were written
system.cpu0.num_cc_register_reads             3767297                       # number of times the CC registers were read
system.cpu0.num_cc_register_writes            2064711                       # number of times the CC registers were written
system.cpu0.num_mem_refs                      1359784                       # number of memory refs
system.cpu0.num_load_insts                     877197                       # Number of load instructions
system.cpu0.num_store_insts                    482587                       # Number of store instructions
system.cpu0.num_idle_cycles              2352723337.803071                       # Number of idle cycles
system.cpu0.num_busy_cycles              14801350.196929                       # Number of busy cycles
system.cpu0.not_idle_fraction                0.006252                       # Percentage of non-idle cycles
system.cpu0.idle_fraction                    0.993748                       # Percentage of idle cycles
system.cpu0.Branches                           687444                       # Number of branches fetched
system.cpu0.op_class::No_OpClass                39441      0.65%      0.65% # Class of executed instruction
system.cpu0.op_class::IntAlu                  4613369     76.50%     77.15% # Class of executed instruction
system.cpu0.op_class::IntMult                    4886      0.08%     77.23% # Class of executed instruction
system.cpu0.op_class::IntDiv                    11811      0.20%     77.43% # Class of executed instruction
system.cpu0.op_class::FloatAdd                   1376      0.02%     77.45% # Class of executed instruction
system.cpu0.op_class::FloatCmp                      0      0.00%     77.45% # Class of executed instruction
system.cpu0.op_class::FloatCvt                      0      0.00%     77.45% # Class of executed instruction
system.cpu0.op_class::FloatMult                     0      0.00%     77.45% # Class of executed instruction
system.cpu0.op_class::FloatDiv                      0      0.00%     77.45% # Class of executed instruction
system.cpu0.op_class::FloatSqrt                     0      0.00%     77.45% # Class of executed instruction
system.cpu0.op_class::SimdAdd                       0      0.00%     77.45% # Class of executed instruction
system.cpu0.op_class::SimdAddAcc                    0      0.00%     77.45% # Class of executed instruction
system.cpu0.op_class::SimdAlu                       0      0.00%     77.45% # Class of executed instruction
system.cpu0.op_class::SimdCmp                       0      0.00%     77.45% # Class of executed instruction
system.cpu0.op_class::SimdCvt                       0      0.00%     77.45% # Class of executed instruction
system.cpu0.op_class::SimdMisc                      0      0.00%     77.45% # Class of executed instruction
system.cpu0.op_class::SimdMult                      0      0.00%     77.45% # Class of executed instruction
system.cpu0.op_class::SimdMultAcc                   0      0.00%     77.45% # Class of executed instruction
system.cpu0.op_class::SimdShift                     0      0.00%     77.45% # Class of executed instruction
system.cpu0.op_class::SimdShiftAcc                  0      0.00%     77.45% # Class of executed instruction
system.cpu0.op_class::SimdSqrt                      0      0.00%     77.45% # Class of executed instruction
system.cpu0.op_class::SimdFloatAdd                  0      0.00%     77.45% # Class of executed instruction
system.cpu0.op_class::SimdFloatAlu                  0      0.00%     77.45% # Class of executed instruction
system.cpu0.op_class::SimdFloatCmp                  0      0.00%     77.45% # Class of executed instruction
system.cpu0.op_class::SimdFloatCvt                  0      0.00%     77.45% # Class of executed instruction
system.cpu0.op_class::SimdFloatDiv                  0      0.00%     77.45% # Class of executed instruction
system.cpu0.op_class::SimdFloatMisc                 0      0.00%     77.45% # Class of executed instruction
system.cpu0.op_class::SimdFloatMult                 0      0.00%     77.45% # Class of executed instruction
system.cpu0.op_class::SimdFloatMultAcc              0      0.00%     77.45% # Class of executed instruction
system.cpu0.op_class::SimdFloatSqrt                 0      0.00%     77.45% # Class of executed instruction
system.cpu0.op_class::MemRead                  877197     14.55%     92.00% # Class of executed instruction
system.cpu0.op_class::MemWrite                 482587      8.00%    100.00% # Class of executed instruction
system.cpu0.op_class::IprAccess                     0      0.00%    100.00% # Class of executed instruction
system.cpu0.op_class::InstPrefetch                  0      0.00%    100.00% # Class of executed instruction
system.cpu0.op_class::total                   6030667                       # Class of executed instruction
system.cpu1.apic_clk_domain.clock                8000                       # Clock period in ticks
system.cpu1.numCycles                      2372191098                       # number of cpu cycles simulated
system.cpu1.numWorkItemsStarted                     0                       # number of work items this cpu started
system.cpu1.numWorkItemsCompleted                   0                       # number of work items this cpu completed
system.cpu1.kern.inst.arm                           0                       # number of arm instructions executed
system.cpu1.kern.inst.quiesce                       0                       # number of quiesce instructions executed
system.cpu1.committedInsts                     869938                       # Number of instructions committed
system.cpu1.committedOps                      1856573                       # Number of ops (including micro ops) committed
system.cpu1.num_int_alu_accesses              1814395                       # Number of integer alu accesses
system.cpu1.num_fp_alu_accesses                    39                       # Number of float alu accesses
system.cpu1.num_func_calls                      51270                       # number of times a function call or return occured
system.cpu1.num_conditional_control_insts       130222                       # number of instructions that are conditional controls
system.cpu1.num_int_insts                     1814395                       # number of integer instructions
system.cpu1.num_fp_insts                           39                       # number of float instructions
system.cpu1.num_int_register_reads            3688957                       # number of times the integer registers were read
system.cpu1.num_int_register_writes           1498674                       # number of times the integer registers were written
system.cpu1.num_fp_register_reads                  63                       # number of times the floating registers were read
system.cpu1.num_fp_register_writes                 31                       # number of times the floating registers were written
system.cpu1.num_cc_register_reads             1014281                       # number of times the CC registers were read
system.cpu1.num_cc_register_writes             545743                       # number of times the CC registers were written
system.cpu1.num_mem_refs                       446091                       # number of memory refs
system.cpu1.num_load_insts                     279093                       # Number of load instructions
system.cpu1.num_store_insts                    166998                       # Number of store instructions
system.cpu1.num_idle_cycles              2366532800.115051                       # Number of idle cycles
system.cpu1.num_busy_cycles              5658297.884949                       # Number of busy cycles
system.cpu1.not_idle_fraction                0.002385                       # Percentage of non-idle cycles
system.cpu1.idle_fraction                    0.997615                       # Percentage of idle cycles
system.cpu1.Branches                           198056                       # Number of branches fetched
system.cpu1.op_class::No_OpClass                30220      1.63%      1.63% # Class of executed instruction
system.cpu1.op_class::IntAlu                  1365609     73.55%     75.18% # Class of executed instruction
system.cpu1.op_class::IntMult                    4461      0.24%     75.42% # Class of executed instruction
system.cpu1.op_class::IntDiv                    10184      0.55%     75.97% # Class of executed instruction
system.cpu1.op_class::FloatAdd                     30      0.00%     75.97% # Class of executed instruction
system.cpu1.op_class::FloatCmp                      0      0.00%     75.97% # Class of executed instruction
system.cpu1.op_class::FloatCvt                      0      0.00%     75.97% # Class of executed instruction
system.cpu1.op_class::FloatMult                     0      0.00%     75.97% # Class of executed instruction
system.cpu1.op_class::FloatDiv                      0      0.00%     75.97% # Class of executed instruction
system.cpu1.op_class::FloatSqrt                     0      0.00%     75.97% # Class of executed instruction
system.cpu1.op_class::SimdAdd                       0      0.00%     75.97% # Class of executed instruction
system.cpu1.op_class::SimdAddAcc                    0      0.00%     75.97% # Class of executed instruction
system.cpu1.op_class::SimdAlu                       0      0.00%     75.97% # Class of executed instruction
system.cpu1.op_class::SimdCmp                       0      0.00%     75.97% # Class of executed instruction
system.cpu1.op_class::SimdCvt                       0      0.00%     75.97% # Class of executed instruction
system.cpu1.op_class::SimdMisc                      0      0.00%     75.97% # Class of executed instruction
system.cpu1.op_class::SimdMult                      0      0.00%     75.97% # Class of executed instruction
system.cpu1.op_class::SimdMultAcc                   0      0.00%     75.97% # Class of executed instruction
system.cpu1.op_class::SimdShift                     0      0.00%     75.97% # Class of executed instruction
system.cpu1.op_class::SimdShiftAcc                  0      0.00%     75.97% # Class of executed instruction
system.cpu1.op_class::SimdSqrt                      0      0.00%     75.97% # Class of executed instruction
system.cpu1.op_class::SimdFloatAdd                  0      0.00%     75.97% # Class of executed instruction
system.cpu1.op_class::SimdFloatAlu                  0      0.00%     75.97% # Class of executed instruction
system.cpu1.op_class::SimdFloatCmp                  0      0.00%     75.97% # Class of executed instruction
system.cpu1.op_class::SimdFloatCvt                  0      0.00%     75.97% # Class of executed instruction
system.cpu1.op_class::SimdFloatDiv                  0      0.00%     75.97% # Class of executed instruction
system.cpu1.op_class::SimdFloatMisc                 0      0.00%     75.97% # Class of executed instruction
system.cpu1.op_class::SimdFloatMult                 0      0.00%     75.97% # Class of executed instruction
system.cpu1.op_class::SimdFloatMultAcc              0      0.00%     75.97% # Class of executed instruction
system.cpu1.op_class::SimdFloatSqrt                 0      0.00%     75.97% # Class of executed instruction
system.cpu1.op_class::MemRead                  279093     15.03%     91.01% # Class of executed instruction
system.cpu1.op_class::MemWrite                 166998      8.99%    100.00% # Class of executed instruction
system.cpu1.op_class::IprAccess                     0      0.00%    100.00% # Class of executed instruction
system.cpu1.op_class::InstPrefetch                  0      0.00%    100.00% # Class of executed instruction
system.cpu1.op_class::total                   1856595                       # Class of executed instruction
system.cpu2.apic_clk_domain.clock                8000                       # Clock period in ticks
system.cpu2.numCycles                      2371512601                       # number of cpu cycles simulated
system.cpu2.numWorkItemsStarted                     0                       # number of work items this cpu started
system.cpu2.numWorkItemsCompleted                   0                       # number of work items this cpu completed
system.cpu2.kern.inst.arm                           0                       # number of arm instructions executed
system.cpu2.kern.inst.quiesce                       0                       # number of quiesce instructions executed
system.cpu2.committedInsts                  533855593                       # Number of instructions committed
system.cpu2.committedOps                    709182580                       # Number of ops (including micro ops) committed
system.cpu2.num_int_alu_accesses            508805287                       # Number of integer alu accesses
system.cpu2.num_fp_alu_accesses             331101068                       # Number of float alu accesses
system.cpu2.num_func_calls                     432957                       # number of times a function call or return occured
system.cpu2.num_conditional_control_insts     31467466                       # number of instructions that are conditional controls
system.cpu2.num_int_insts                   508805287                       # number of integer instructions
system.cpu2.num_fp_insts                    331101068                       # number of float instructions
system.cpu2.num_int_register_reads         1070115294                       # number of times the integer registers were read
system.cpu2.num_int_register_writes         339844827                       # number of times the integer registers were written
system.cpu2.num_fp_register_reads           564014582                       # number of times the floating registers were read
system.cpu2.num_fp_register_writes          276695748                       # number of times the floating registers were written
system.cpu2.num_cc_register_reads           220291407                       # number of times the CC registers were read
system.cpu2.num_cc_register_writes          241361814                       # number of times the CC registers were written
system.cpu2.num_mem_refs                    152838654                       # number of memory refs
system.cpu2.num_load_insts                   94762462                       # Number of load instructions
system.cpu2.num_store_insts                  58076192                       # Number of store instructions
system.cpu2.num_idle_cycles              9732380.066708                       # Number of idle cycles
system.cpu2.num_busy_cycles              2361780220.933291                       # Number of busy cycles
system.cpu2.not_idle_fraction                0.995896                       # Percentage of non-idle cycles
system.cpu2.idle_fraction                    0.004104                       # Percentage of idle cycles
system.cpu2.Branches                         33879643                       # Number of branches fetched
system.cpu2.op_class::No_OpClass               955227      0.13%      0.13% # Class of executed instruction
system.cpu2.op_class::IntAlu                444077569     62.62%     62.75% # Class of executed instruction
system.cpu2.op_class::IntMult                   24533      0.00%     62.76% # Class of executed instruction
system.cpu2.op_class::IntDiv                   145167      0.02%     62.78% # Class of executed instruction
system.cpu2.op_class::FloatAdd              111149730     15.67%     78.45% # Class of executed instruction
system.cpu2.op_class::FloatCmp                      0      0.00%     78.45% # Class of executed instruction
system.cpu2.op_class::FloatCvt                      0      0.00%     78.45% # Class of executed instruction
system.cpu2.op_class::FloatMult                     0      0.00%     78.45% # Class of executed instruction
system.cpu2.op_class::FloatDiv                      0      0.00%     78.45% # Class of executed instruction
system.cpu2.op_class::FloatSqrt                     0      0.00%     78.45% # Class of executed instruction
system.cpu2.op_class::SimdAdd                       0      0.00%     78.45% # Class of executed instruction
system.cpu2.op_class::SimdAddAcc                    0      0.00%     78.45% # Class of executed instruction
system.cpu2.op_class::SimdAlu                       0      0.00%     78.45% # Class of executed instruction
system.cpu2.op_class::SimdCmp                       0      0.00%     78.45% # Class of executed instruction
system.cpu2.op_class::SimdCvt                       0      0.00%     78.45% # Class of executed instruction
system.cpu2.op_class::SimdMisc                      0      0.00%     78.45% # Class of executed instruction
system.cpu2.op_class::SimdMult                      0      0.00%     78.45% # Class of executed instruction
system.cpu2.op_class::SimdMultAcc                   0      0.00%     78.45% # Class of executed instruction
system.cpu2.op_class::SimdShift                     0      0.00%     78.45% # Class of executed instruction
system.cpu2.op_class::SimdShiftAcc                  0      0.00%     78.45% # Class of executed instruction
system.cpu2.op_class::SimdSqrt                      0      0.00%     78.45% # Class of executed instruction
system.cpu2.op_class::SimdFloatAdd                  0      0.00%     78.45% # Class of executed instruction
system.cpu2.op_class::SimdFloatAlu                  0      0.00%     78.45% # Class of executed instruction
system.cpu2.op_class::SimdFloatCmp                  0      0.00%     78.45% # Class of executed instruction
system.cpu2.op_class::SimdFloatCvt                  0      0.00%     78.45% # Class of executed instruction
system.cpu2.op_class::SimdFloatDiv                  0      0.00%     78.45% # Class of executed instruction
system.cpu2.op_class::SimdFloatMisc                 0      0.00%     78.45% # Class of executed instruction
system.cpu2.op_class::SimdFloatMult                 0      0.00%     78.45% # Class of executed instruction
system.cpu2.op_class::SimdFloatMultAcc              0      0.00%     78.45% # Class of executed instruction
system.cpu2.op_class::SimdFloatSqrt                 0      0.00%     78.45% # Class of executed instruction
system.cpu2.op_class::MemRead                94762462     13.36%     91.81% # Class of executed instruction
system.cpu2.op_class::MemWrite               58076192      8.19%    100.00% # Class of executed instruction
system.cpu2.op_class::IprAccess                     0      0.00%    100.00% # Class of executed instruction
system.cpu2.op_class::InstPrefetch                  0      0.00%    100.00% # Class of executed instruction
system.cpu2.op_class::total                 709190880                       # Class of executed instruction
system.cpu3.apic_clk_domain.clock                8000                       # Clock period in ticks
system.cpu3.numCycles                      2367472956                       # number of cpu cycles simulated
system.cpu3.numWorkItemsStarted                     0                       # number of work items this cpu started
system.cpu3.numWorkItemsCompleted                   0                       # number of work items this cpu completed
system.cpu3.kern.inst.arm                           0                       # number of arm instructions executed
system.cpu3.kern.inst.quiesce                       0                       # number of quiesce instructions executed
system.cpu3.committedInsts                     832077                       # Number of instructions committed
system.cpu3.committedOps                      1799080                       # Number of ops (including micro ops) committed
system.cpu3.num_int_alu_accesses              1760656                       # Number of integer alu accesses
system.cpu3.num_fp_alu_accesses                     0                       # Number of float alu accesses
system.cpu3.num_func_calls                      52560                       # number of times a function call or return occured
system.cpu3.num_conditional_control_insts       120250                       # number of instructions that are conditional controls
system.cpu3.num_int_insts                     1760656                       # number of integer instructions
system.cpu3.num_fp_insts                            0                       # number of float instructions
system.cpu3.num_int_register_reads            3582382                       # number of times the integer registers were read
system.cpu3.num_int_register_writes           1457095                       # number of times the integer registers were written
system.cpu3.num_fp_register_reads                   0                       # number of times the floating registers were read
system.cpu3.num_fp_register_writes                  0                       # number of times the floating registers were written
system.cpu3.num_cc_register_reads              958679                       # number of times the CC registers were read
system.cpu3.num_cc_register_writes             520995                       # number of times the CC registers were written
system.cpu3.num_mem_refs                       432257                       # number of memory refs
system.cpu3.num_load_insts                     269697                       # Number of load instructions
system.cpu3.num_store_insts                    162560                       # Number of store instructions
system.cpu3.num_idle_cycles              2362623147.040652                       # Number of idle cycles
system.cpu3.num_busy_cycles              4849808.959348                       # Number of busy cycles
system.cpu3.not_idle_fraction                0.002049                       # Percentage of non-idle cycles
system.cpu3.idle_fraction                    0.997951                       # Percentage of idle cycles
system.cpu3.Branches                           189589                       # Number of branches fetched
system.cpu3.op_class::No_OpClass                29701      1.65%      1.65% # Class of executed instruction
system.cpu3.op_class::IntAlu                  1323093     73.54%     75.19% # Class of executed instruction
system.cpu3.op_class::IntMult                    3497      0.19%     75.39% # Class of executed instruction
system.cpu3.op_class::IntDiv                    10535      0.59%     75.97% # Class of executed instruction
system.cpu3.op_class::FloatAdd                      0      0.00%     75.97% # Class of executed instruction
system.cpu3.op_class::FloatCmp                      0      0.00%     75.97% # Class of executed instruction
system.cpu3.op_class::FloatCvt                      0      0.00%     75.97% # Class of executed instruction
system.cpu3.op_class::FloatMult                     0      0.00%     75.97% # Class of executed instruction
system.cpu3.op_class::FloatDiv                      0      0.00%     75.97% # Class of executed instruction
system.cpu3.op_class::FloatSqrt                     0      0.00%     75.97% # Class of executed instruction
system.cpu3.op_class::SimdAdd                       0      0.00%     75.97% # Class of executed instruction
system.cpu3.op_class::SimdAddAcc                    0      0.00%     75.97% # Class of executed instruction
system.cpu3.op_class::SimdAlu                       0      0.00%     75.97% # Class of executed instruction
system.cpu3.op_class::SimdCmp                       0      0.00%     75.97% # Class of executed instruction
system.cpu3.op_class::SimdCvt                       0      0.00%     75.97% # Class of executed instruction
system.cpu3.op_class::SimdMisc                      0      0.00%     75.97% # Class of executed instruction
system.cpu3.op_class::SimdMult                      0      0.00%     75.97% # Class of executed instruction
system.cpu3.op_class::SimdMultAcc                   0      0.00%     75.97% # Class of executed instruction
system.cpu3.op_class::SimdShift                     0      0.00%     75.97% # Class of executed instruction
system.cpu3.op_class::SimdShiftAcc                  0      0.00%     75.97% # Class of executed instruction
system.cpu3.op_class::SimdSqrt                      0      0.00%     75.97% # Class of executed instruction
system.cpu3.op_class::SimdFloatAdd                  0      0.00%     75.97% # Class of executed instruction
system.cpu3.op_class::SimdFloatAlu                  0      0.00%     75.97% # Class of executed instruction
system.cpu3.op_class::SimdFloatCmp                  0      0.00%     75.97% # Class of executed instruction
system.cpu3.op_class::SimdFloatCvt                  0      0.00%     75.97% # Class of executed instruction
system.cpu3.op_class::SimdFloatDiv                  0      0.00%     75.97% # Class of executed instruction
system.cpu3.op_class::SimdFloatMisc                 0      0.00%     75.97% # Class of executed instruction
system.cpu3.op_class::SimdFloatMult                 0      0.00%     75.97% # Class of executed instruction
system.cpu3.op_class::SimdFloatMultAcc              0      0.00%     75.97% # Class of executed instruction
system.cpu3.op_class::SimdFloatSqrt                 0      0.00%     75.97% # Class of executed instruction
system.cpu3.op_class::MemRead                  269697     14.99%     90.96% # Class of executed instruction
system.cpu3.op_class::MemWrite                 162560      9.04%    100.00% # Class of executed instruction
system.cpu3.op_class::IprAccess                     0      0.00%    100.00% # Class of executed instruction
system.cpu3.op_class::InstPrefetch                  0      0.00%    100.00% # Class of executed instruction
system.cpu3.op_class::total                   1799083                       # Class of executed instruction
system.iobus.trans_dist::ReadReq                  713                       # Transaction distribution
system.iobus.trans_dist::ReadResp                 713                       # Transaction distribution
system.iobus.trans_dist::WriteReq                1458                       # Transaction distribution
system.iobus.trans_dist::WriteResp               1458                       # Transaction distribution
system.iobus.trans_dist::MessageReq                13                       # Transaction distribution
system.iobus.trans_dist::MessageResp               13                       # Transaction distribution
system.iobus.pkt_count_system.pc.south_bridge.io_apic.int_master::system.ruby.l1_cntrl0.sequencer.pio-slave-port            2                       # Packet count per connected master and slave (bytes)
system.iobus.pkt_count_system.pc.south_bridge.io_apic.int_master::system.ruby.l1_cntrl1.sequencer.pio-slave-port            4                       # Packet count per connected master and slave (bytes)
system.iobus.pkt_count_system.pc.south_bridge.io_apic.int_master::system.ruby.l1_cntrl2.sequencer.pio-slave-port            2                       # Packet count per connected master and slave (bytes)
system.iobus.pkt_count_system.pc.south_bridge.io_apic.int_master::system.ruby.l1_cntrl3.sequencer.pio-slave-port            2                       # Packet count per connected master and slave (bytes)
system.iobus.pkt_count_system.pc.south_bridge.io_apic.int_master::total           10                       # Packet count per connected master and slave (bytes)
system.iobus.pkt_count_system.ruby.l1_cntrl0.sequencer.mem-master-port::system.pc.south_bridge.io_apic.pio            8                       # Packet count per connected master and slave (bytes)
system.iobus.pkt_count_system.ruby.l1_cntrl0.sequencer.mem-master-port::system.ruby.l1_cntrl0.sequencer.pio-slave-port          614                       # Packet count per connected master and slave (bytes)
system.iobus.pkt_count_system.ruby.l1_cntrl0.sequencer.mem-master-port::system.ruby.l1_cntrl1.sequencer.pio-slave-port            2                       # Packet count per connected master and slave (bytes)
system.iobus.pkt_count_system.ruby.l1_cntrl0.sequencer.mem-master-port::system.ruby.l1_cntrl2.sequencer.pio-slave-port            2                       # Packet count per connected master and slave (bytes)
system.iobus.pkt_count_system.ruby.l1_cntrl0.sequencer.mem-master-port::system.ruby.l1_cntrl3.sequencer.pio-slave-port            2                       # Packet count per connected master and slave (bytes)
system.iobus.pkt_count_system.ruby.l1_cntrl0.sequencer.mem-master-port::total          628                       # Packet count per connected master and slave (bytes)
system.iobus.pkt_count_system.ruby.l1_cntrl1.sequencer.mem-master-port::system.pc.south_bridge.io_apic.pio           14                       # Packet count per connected master and slave (bytes)
system.iobus.pkt_count_system.ruby.l1_cntrl1.sequencer.mem-master-port::system.pc.com_1.pio          130                       # Packet count per connected master and slave (bytes)
system.iobus.pkt_count_system.ruby.l1_cntrl1.sequencer.mem-master-port::system.ruby.l1_cntrl1.sequencer.pio-slave-port          608                       # Packet count per connected master and slave (bytes)
system.iobus.pkt_count_system.ruby.l1_cntrl1.sequencer.mem-master-port::system.ruby.l1_cntrl2.sequencer.pio-slave-port            2                       # Packet count per connected master and slave (bytes)
system.iobus.pkt_count_system.ruby.l1_cntrl1.sequencer.mem-master-port::total          754                       # Packet count per connected master and slave (bytes)
system.iobus.pkt_count_system.ruby.l1_cntrl2.sequencer.mem-master-port::system.pc.south_bridge.io_apic.pio            8                       # Packet count per connected master and slave (bytes)
system.iobus.pkt_count_system.ruby.l1_cntrl2.sequencer.mem-master-port::system.ruby.l1_cntrl1.sequencer.pio-slave-port            4                       # Packet count per connected master and slave (bytes)
system.iobus.pkt_count_system.ruby.l1_cntrl2.sequencer.mem-master-port::system.ruby.l1_cntrl2.sequencer.pio-slave-port          616                       # Packet count per connected master and slave (bytes)
system.iobus.pkt_count_system.ruby.l1_cntrl2.sequencer.mem-master-port::system.ruby.l1_cntrl3.sequencer.pio-slave-port            2                       # Packet count per connected master and slave (bytes)
system.iobus.pkt_count_system.ruby.l1_cntrl2.sequencer.mem-master-port::total          630                       # Packet count per connected master and slave (bytes)
system.iobus.pkt_count_system.ruby.l1_cntrl3.sequencer.mem-master-port::system.pc.south_bridge.io_apic.pio            6                       # Packet count per connected master and slave (bytes)
system.iobus.pkt_count_system.ruby.l1_cntrl3.sequencer.mem-master-port::system.pc.com_1.pio         1734                       # Packet count per connected master and slave (bytes)
system.iobus.pkt_count_system.ruby.l1_cntrl3.sequencer.mem-master-port::system.ruby.l1_cntrl0.sequencer.pio-slave-port            2                       # Packet count per connected master and slave (bytes)
system.iobus.pkt_count_system.ruby.l1_cntrl3.sequencer.mem-master-port::system.ruby.l1_cntrl3.sequencer.pio-slave-port          604                       # Packet count per connected master and slave (bytes)
system.iobus.pkt_count_system.ruby.l1_cntrl3.sequencer.mem-master-port::total         2346                       # Packet count per connected master and slave (bytes)
system.iobus.pkt_count::total                    4368                       # Packet count per connected master and slave (bytes)
system.iobus.pkt_size_system.pc.south_bridge.io_apic.int_master::system.ruby.l1_cntrl0.sequencer.pio-slave-port            4                       # Cumulative packet size per connected master and slave (bytes)
system.iobus.pkt_size_system.pc.south_bridge.io_apic.int_master::system.ruby.l1_cntrl1.sequencer.pio-slave-port            8                       # Cumulative packet size per connected master and slave (bytes)
system.iobus.pkt_size_system.pc.south_bridge.io_apic.int_master::system.ruby.l1_cntrl2.sequencer.pio-slave-port            4                       # Cumulative packet size per connected master and slave (bytes)
system.iobus.pkt_size_system.pc.south_bridge.io_apic.int_master::system.ruby.l1_cntrl3.sequencer.pio-slave-port            4                       # Cumulative packet size per connected master and slave (bytes)
system.iobus.pkt_size_system.pc.south_bridge.io_apic.int_master::total           20                       # Cumulative packet size per connected master and slave (bytes)
system.iobus.pkt_size_system.ruby.l1_cntrl0.sequencer.mem-master-port::system.pc.south_bridge.io_apic.pio           16                       # Cumulative packet size per connected master and slave (bytes)
system.iobus.pkt_size_system.ruby.l1_cntrl0.sequencer.mem-master-port::system.ruby.l1_cntrl0.sequencer.pio-slave-port         1228                       # Cumulative packet size per connected master and slave (bytes)
system.iobus.pkt_size_system.ruby.l1_cntrl0.sequencer.mem-master-port::system.ruby.l1_cntrl1.sequencer.pio-slave-port            4                       # Cumulative packet size per connected master and slave (bytes)
system.iobus.pkt_size_system.ruby.l1_cntrl0.sequencer.mem-master-port::system.ruby.l1_cntrl2.sequencer.pio-slave-port            4                       # Cumulative packet size per connected master and slave (bytes)
system.iobus.pkt_size_system.ruby.l1_cntrl0.sequencer.mem-master-port::system.ruby.l1_cntrl3.sequencer.pio-slave-port            4                       # Cumulative packet size per connected master and slave (bytes)
system.iobus.pkt_size_system.ruby.l1_cntrl0.sequencer.mem-master-port::total         1256                       # Cumulative packet size per connected master and slave (bytes)
system.iobus.pkt_size_system.ruby.l1_cntrl1.sequencer.mem-master-port::system.pc.south_bridge.io_apic.pio           28                       # Cumulative packet size per connected master and slave (bytes)
system.iobus.pkt_size_system.ruby.l1_cntrl1.sequencer.mem-master-port::system.pc.com_1.pio           65                       # Cumulative packet size per connected master and slave (bytes)
system.iobus.pkt_size_system.ruby.l1_cntrl1.sequencer.mem-master-port::system.ruby.l1_cntrl1.sequencer.pio-slave-port         1216                       # Cumulative packet size per connected master and slave (bytes)
system.iobus.pkt_size_system.ruby.l1_cntrl1.sequencer.mem-master-port::system.ruby.l1_cntrl2.sequencer.pio-slave-port            4                       # Cumulative packet size per connected master and slave (bytes)
system.iobus.pkt_size_system.ruby.l1_cntrl1.sequencer.mem-master-port::total         1313                       # Cumulative packet size per connected master and slave (bytes)
system.iobus.pkt_size_system.ruby.l1_cntrl2.sequencer.mem-master-port::system.pc.south_bridge.io_apic.pio           16                       # Cumulative packet size per connected master and slave (bytes)
system.iobus.pkt_size_system.ruby.l1_cntrl2.sequencer.mem-master-port::system.ruby.l1_cntrl1.sequencer.pio-slave-port            8                       # Cumulative packet size per connected master and slave (bytes)
system.iobus.pkt_size_system.ruby.l1_cntrl2.sequencer.mem-master-port::system.ruby.l1_cntrl2.sequencer.pio-slave-port         1232                       # Cumulative packet size per connected master and slave (bytes)
system.iobus.pkt_size_system.ruby.l1_cntrl2.sequencer.mem-master-port::system.ruby.l1_cntrl3.sequencer.pio-slave-port            4                       # Cumulative packet size per connected master and slave (bytes)
system.iobus.pkt_size_system.ruby.l1_cntrl2.sequencer.mem-master-port::total         1260                       # Cumulative packet size per connected master and slave (bytes)
system.iobus.pkt_size_system.ruby.l1_cntrl3.sequencer.mem-master-port::system.pc.south_bridge.io_apic.pio           12                       # Cumulative packet size per connected master and slave (bytes)
system.iobus.pkt_size_system.ruby.l1_cntrl3.sequencer.mem-master-port::system.pc.com_1.pio          867                       # Cumulative packet size per connected master and slave (bytes)
system.iobus.pkt_size_system.ruby.l1_cntrl3.sequencer.mem-master-port::system.ruby.l1_cntrl0.sequencer.pio-slave-port            4                       # Cumulative packet size per connected master and slave (bytes)
system.iobus.pkt_size_system.ruby.l1_cntrl3.sequencer.mem-master-port::system.ruby.l1_cntrl3.sequencer.pio-slave-port         1208                       # Cumulative packet size per connected master and slave (bytes)
system.iobus.pkt_size_system.ruby.l1_cntrl3.sequencer.mem-master-port::total         2091                       # Cumulative packet size per connected master and slave (bytes)
system.iobus.pkt_size::total                     5940                       # Cumulative packet size per connected master and slave (bytes)
system.iobus.reqLayer8.occupancy                32496                       # Layer occupancy (ticks)
system.iobus.reqLayer8.utilization                0.0                       # Layer utilization (%)
system.iobus.reqLayer12.occupancy             1219000                       # Layer occupancy (ticks)
system.iobus.reqLayer12.utilization               0.0                       # Layer utilization (%)
system.iobus.reqLayer17.occupancy              703498                       # Layer occupancy (ticks)
system.iobus.reqLayer17.utilization               0.0                       # Layer utilization (%)
system.iobus.reqLayer18.occupancy              705000                       # Layer occupancy (ticks)
system.iobus.reqLayer18.utilization               0.0                       # Layer utilization (%)
system.iobus.reqLayer19.occupancy              808262                       # Layer occupancy (ticks)
system.iobus.reqLayer19.utilization               0.0                       # Layer utilization (%)
system.iobus.reqLayer20.occupancy              699000                       # Layer occupancy (ticks)
system.iobus.reqLayer20.utilization               0.0                       # Layer utilization (%)
system.iobus.respLayer0.occupancy                6500                       # Layer occupancy (ticks)
system.iobus.respLayer0.utilization               0.0                       # Layer utilization (%)
system.iobus.respLayer2.occupancy              473000                       # Layer occupancy (ticks)
system.iobus.respLayer2.utilization               0.0                       # Layer utilization (%)
system.iobus.respLayer4.occupancy              580000                       # Layer occupancy (ticks)
system.iobus.respLayer4.utilization               0.0                       # Layer utilization (%)
system.iobus.respLayer6.occupancy              474000                       # Layer occupancy (ticks)
system.iobus.respLayer6.utilization               0.0                       # Layer utilization (%)
system.iobus.respLayer8.occupancy             1976000                       # Layer occupancy (ticks)
system.iobus.respLayer8.utilization               0.0                       # Layer utilization (%)
system.pc.south_bridge.ide.disks.dma_read_full_pages            0                       # Number of full page size DMA reads (not PRD).
system.pc.south_bridge.ide.disks.dma_read_bytes            0                       # Number of bytes transfered via DMA reads (not PRD).
system.pc.south_bridge.ide.disks.dma_read_txs            0                       # Number of DMA read transactions (not PRD).
system.pc.south_bridge.ide.disks.dma_write_full_pages            0                       # Number of full page size DMA writes.
system.pc.south_bridge.ide.disks.dma_write_bytes            0                       # Number of bytes transfered via DMA writes.
system.pc.south_bridge.ide.disks.dma_write_txs            0                       # Number of DMA write transactions.
system.ruby.clk_domain.clock                      500                       # Clock period in ticks
system.ruby.delayHist::bucket_size                  4                       # delay histogram for all message
system.ruby.delayHist::max_bucket                  39                       # delay histogram for all message
system.ruby.delayHist::samples               40249239                       # delay histogram for all message
system.ruby.delayHist::mean                  0.808003                       # delay histogram for all message
system.ruby.delayHist::stdev                 2.410021                       # delay histogram for all message
system.ruby.delayHist                    |    36189969     89.91%     89.91% |        5059      0.01%     89.93% |     4053071     10.07%    100.00% |         294      0.00%    100.00% |         828      0.00%    100.00% |           4      0.00%    100.00% |          12      0.00%    100.00% |           2      0.00%    100.00% |           0      0.00%    100.00% |           0      0.00%    100.00% # delay histogram for all message
system.ruby.delayHist::total                 40249239                       # delay histogram for all message
system.ruby.outstanding_req_hist_seqr::bucket_size            1                      
system.ruby.outstanding_req_hist_seqr::max_bucket            9                      
system.ruby.outstanding_req_hist_seqr::samples    936270875                      
system.ruby.outstanding_req_hist_seqr::mean     1.000000                      
system.ruby.outstanding_req_hist_seqr::gmean     1.000000                      
system.ruby.outstanding_req_hist_seqr::stdev     0.000513                      
system.ruby.outstanding_req_hist_seqr    |           0      0.00%      0.00% |   936270629    100.00%    100.00% |         246      0.00%    100.00% |           0      0.00%    100.00% |           0      0.00%    100.00% |           0      0.00%    100.00% |           0      0.00%    100.00% |           0      0.00%    100.00% |           0      0.00%    100.00% |           0      0.00%    100.00%
system.ruby.outstanding_req_hist_seqr::total    936270875                      
system.ruby.latency_hist_seqr::bucket_size          256                      
system.ruby.latency_hist_seqr::max_bucket         2559                      
system.ruby.latency_hist_seqr::samples      936270875                      
system.ruby.latency_hist_seqr::mean          1.546971                      
system.ruby.latency_hist_seqr::gmean         1.028383                      
system.ruby.latency_hist_seqr::stdev        10.631564                      
system.ruby.latency_hist_seqr            |   936123259     99.98%     99.98% |       64181      0.01%     99.99% |       65321      0.01%    100.00% |       10025      0.00%    100.00% |        6810      0.00%    100.00% |         832      0.00%    100.00% |         408      0.00%    100.00% |          35      0.00%    100.00% |           4      0.00%    100.00% |           0      0.00%    100.00%
system.ruby.latency_hist_seqr::total        936270875                      
system.ruby.hit_latency_hist_seqr::bucket_size            1                      
system.ruby.hit_latency_hist_seqr::max_bucket            9                      
system.ruby.hit_latency_hist_seqr::samples    929240807                      
[...]
system.ruby.DMA_Controller.WriteRequest::total          128                      
system.ruby.DMA_Controller.Data          |           2    100.00%    100.00% |           0      0.00%    100.00%
system.ruby.DMA_Controller.Data::total              2                      
system.ruby.DMA_Controller.Ack           |         128    100.00%    100.00% |           0      0.00%    100.00%
system.ruby.DMA_Controller.Ack::total             128                      
system.ruby.DMA_Controller.READY.ReadRequest |           2    100.00%    100.00% |           0      0.00%    100.00%
system.ruby.DMA_Controller.READY.ReadRequest::total            2                      
system.ruby.DMA_Controller.READY.WriteRequest |         128    100.00%    100.00% |           0      0.00%    100.00%
system.ruby.DMA_Controller.READY.WriteRequest::total          128                      
system.ruby.DMA_Controller.BUSY_RD.Data  |           2    100.00%    100.00% |           0      0.00%    100.00%
system.ruby.DMA_Controller.BUSY_RD.Data::total            2                      
system.ruby.DMA_Controller.BUSY_WR.Ack   |         128    100.00%    100.00% |           0      0.00%    100.00%
system.ruby.DMA_Controller.BUSY_WR.Ack::total          128                      
system.ruby.L1Cache_Controller.Load      |     2806602      2.51%      2.51% |      771547      0.69%      3.20% |   107896279     96.39%     99.59% |      457931      0.41%    100.00%
system.ruby.L1Cache_Controller.Load::total    111932359                      
system.ruby.L1Cache_Controller.Ifetch    |    16986121      2.16%      2.16% |     3806042      0.48%      2.64% |   763947849     97.09%     99.74% |     2077498      0.26%    100.00%
system.ruby.L1Cache_Controller.Ifetch::total    786817510                      
system.ruby.L1Cache_Controller.Store     |     2193190      3.55%      3.55% |      613327      0.99%      4.55% |    58564195     94.91%     99.45% |      336497      0.55%    100.00%
system.ruby.L1Cache_Controller.Store::total     61707209                      
system.ruby.L1Cache_Controller.Inv       |       31347     29.11%     29.11% |       25681     23.84%     52.95% |       26395     24.51%     77.46% |       24279     22.54%    100.00%
system.ruby.L1Cache_Controller.Inv::total       107702                      
system.ruby.L1Cache_Controller.L1_Replacement |      169630      2.37%      2.37% |       50174      0.70%      3.07% |     6898584     96.47%     99.55% |       32422      0.45%    100.00%
system.ruby.L1Cache_Controller.L1_Replacement::total      7150810                      
system.ruby.L1Cache_Controller.Fwd_GETX  |        1050     24.19%     24.19% |        1280     29.49%     53.67% |        1328     30.59%     84.27% |         683     15.73%    100.00%
system.ruby.L1Cache_Controller.Fwd_GETX::total         4341                      
system.ruby.L1Cache_Controller.Fwd_GETS  |        4651     31.78%     31.78% |        4228     28.89%     60.67% |        2742     18.73%     79.40% |        3015     20.60%    100.00%
system.ruby.L1Cache_Controller.Fwd_GETS::total        14636                      
system.ruby.L1Cache_Controller.Data      |         285     28.41%     28.41% |         123     12.26%     40.68% |         564     56.23%     96.91% |          31      3.09%    100.00%
system.ruby.L1Cache_Controller.Data::total         1003                      
system.ruby.L1Cache_Controller.Data_Exclusive |       84124      2.40%      2.40% |       13825      0.39%      2.79% |     3400824     96.91%     99.70% |       10587      0.30%    100.00%
system.ruby.L1Cache_Controller.Data_Exclusive::total      3509360                      
system.ruby.L1Cache_Controller.DataS_fromL1 |        4195     28.66%     28.66% |        3169     21.65%     50.31% |        2900     19.81%     70.13% |        4372     29.87%    100.00%
system.ruby.L1Cache_Controller.DataS_fromL1::total        14636                      
system.ruby.L1Cache_Controller.Data_all_Acks |      101103      2.73%      2.73% |       53769      1.45%      4.19% |     3508799     94.82%     99.01% |       36748      0.99%    100.00%
system.ruby.L1Cache_Controller.Data_all_Acks::total      3700419                      
system.ruby.L1Cache_Controller.Ack       |        8396     45.36%     45.36% |        3454     18.66%     64.02% |        3784     20.44%     84.46% |        2876     15.54%    100.00%
system.ruby.L1Cache_Controller.Ack::total        18510                      
system.ruby.L1Cache_Controller.Ack_all   |        4402     37.71%     37.71% |        2555     21.89%     59.60% |        2804     24.02%     83.63% |        1911     16.37%    100.00%
system.ruby.L1Cache_Controller.Ack_all::total        11672                      
system.ruby.L1Cache_Controller.WB_Ack    |      112202      1.61%      1.61% |       18961      0.27%      1.88% |     6846539     97.96%     99.84% |       11231      0.16%    100.00%
system.ruby.L1Cache_Controller.WB_Ack::total      6988933                      
system.ruby.L1Cache_Controller.NP.Load   |       86534      2.46%      2.46% |       14262      0.41%      2.86% |     3410340     96.85%     99.72% |       10035      0.28%    100.00%
system.ruby.L1Cache_Controller.NP.Load::total      3521171                      
system.ruby.L1Cache_Controller.NP.Ifetch |       50367     38.43%     38.43% |       25417     19.39%     57.82% |       38171     29.12%     86.94% |       17115     13.06%    100.00%
system.ruby.L1Cache_Controller.NP.Ifetch::total       131070                      
system.ruby.L1Cache_Controller.NP.Store  |       32729      0.94%      0.94% |       10934      0.31%      1.25% |     3450073     98.60%     99.85% |        5310      0.15%    100.00%
system.ruby.L1Cache_Controller.NP.Store::total      3499046                      
system.ruby.L1Cache_Controller.NP.Inv    |        8342     38.25%     38.25% |        2586     11.86%     50.10% |        8750     40.12%     90.22% |        2134      9.78%    100.00%
system.ruby.L1Cache_Controller.NP.Inv::total        21812                      
system.ruby.L1Cache_Controller.I.Load    |        6735     25.91%     25.91% |        8202     31.56%     57.47% |        3150     12.12%     69.59% |        7905     30.41%    100.00%
system.ruby.L1Cache_Controller.I.Load::total        25992                      
system.ruby.L1Cache_Controller.I.Ifetch  |       10181     27.17%     27.17% |        8717     23.26%     50.44% |       10122     27.01%     77.45% |        8450     22.55%    100.00%
system.ruby.L1Cache_Controller.I.Ifetch::total        37470                      
system.ruby.L1Cache_Controller.I.Store   |        3160     29.63%     29.63% |        3352     31.43%     61.06% |        1230     11.53%     72.59% |        2923     27.41%    100.00%
system.ruby.L1Cache_Controller.I.Store::total        10665                      
system.ruby.L1Cache_Controller.I.L1_Replacement |        3621     23.21%     23.21% |        4070     26.09%     49.31% |        4553     29.19%     78.50% |        3354     21.50%    100.00%
system.ruby.L1Cache_Controller.I.L1_Replacement::total        15598                      
system.ruby.L1Cache_Controller.S.Load    |      239482     43.10%     43.10% |      122696     22.08%     65.18% |      114135     20.54%     85.72% |       79334     14.28%    100.00%
system.ruby.L1Cache_Controller.S.Load::total       555647                      
system.ruby.L1Cache_Controller.S.Ifetch  |    16925572      2.15%      2.15% |     3771908      0.48%      2.63% |   763899556     97.11%     99.74% |     2051933      0.26%    100.00%
system.ruby.L1Cache_Controller.S.Ifetch::total    786648969                      
system.ruby.L1Cache_Controller.S.Store   |        4118     38.58%     38.58% |        2434     22.81%     61.39% |        2241     21.00%     82.39% |        1880     17.61%    100.00%
system.ruby.L1Cache_Controller.S.Store::total        10673                      
system.ruby.L1Cache_Controller.S.Inv     |       16429     25.56%     25.56% |       17341     26.98%     52.55% |       14179     22.06%     74.61% |       16317     25.39%    100.00%
system.ruby.L1Cache_Controller.S.Inv::total        64266                      
system.ruby.L1Cache_Controller.S.L1_Replacement |       53807     36.78%     36.78% |       27143     18.56%     55.34% |       47492     32.47%     87.81% |       17837     12.19%    100.00%
system.ruby.L1Cache_Controller.S.L1_Replacement::total       146279                      
system.ruby.L1Cache_Controller.E.Load    |      424084      0.99%      0.99% |      116112      0.27%      1.26% |    42423702     98.56%     99.82% |       79415      0.18%    100.00%
system.ruby.L1Cache_Controller.E.Load::total     43043313                      
system.ruby.L1Cache_Controller.E.Store   |       54014      8.54%      8.54% |        3709      0.59%      9.13% |      571942     90.45%     99.58% |        2677      0.42%    100.00%
system.ruby.L1Cache_Controller.E.Store::total       632342                      
system.ruby.L1Cache_Controller.E.Inv     |        2220     27.80%     27.80% |        1658     20.76%     48.56% |        2271     28.44%     77.00% |        1837     23.00%    100.00%
system.ruby.L1Cache_Controller.E.Inv::total         7986                      
system.ruby.L1Cache_Controller.E.L1_Replacement |       26505      0.93%      0.93% |        5829      0.20%      1.13% |     2825764     98.70%     99.83% |        4954      0.17%    100.00%
system.ruby.L1Cache_Controller.E.L1_Replacement::total      2863052                      
system.ruby.L1Cache_Controller.E.Fwd_GETX |         469     40.12%     40.12% |         553     47.31%     87.43% |          70      5.99%     93.41% |          77      6.59%    100.00%
system.ruby.L1Cache_Controller.E.Fwd_GETX::total         1169                      
system.ruby.L1Cache_Controller.E.Fwd_GETS |        1268     26.72%     26.72% |        1945     40.99%     67.71% |         512     10.79%     78.50% |        1020     21.50%    100.00%
system.ruby.L1Cache_Controller.E.Fwd_GETS::total         4745                      
system.ruby.L1Cache_Controller.M.Load    |     2049767      3.16%      3.16% |      510275      0.79%      3.95% |    61944952     95.61%     99.57% |      281242      0.43%    100.00%
system.ruby.L1Cache_Controller.M.Load::total     64786236                      
system.ruby.L1Cache_Controller.M.Store   |     2099169      3.65%      3.65% |      592898      1.03%      4.68% |    54538709     94.76%     99.44% |      323707      0.56%    100.00%
system.ruby.L1Cache_Controller.M.Store::total     57554483                      
system.ruby.L1Cache_Controller.M.Inv     |        4355     31.94%     31.94% |        4094     30.03%     61.97% |        1194      8.76%     70.73% |        3991     29.27%    100.00%
system.ruby.L1Cache_Controller.M.Inv::total        13634                      
system.ruby.L1Cache_Controller.M.L1_Replacement |       85697      2.08%      2.08% |       13132      0.32%      2.40% |     4020775     97.45%     99.85% |        6277      0.15%    100.00%
system.ruby.L1Cache_Controller.M.L1_Replacement::total      4125881                      
system.ruby.L1Cache_Controller.M.Fwd_GETX |         581     18.32%     18.32% |         727     22.92%     41.24% |        1258     39.66%     80.90% |         606     19.10%    100.00%
system.ruby.L1Cache_Controller.M.Fwd_GETX::total         3172                      
system.ruby.L1Cache_Controller.M.Fwd_GETS |        3383     34.20%     34.20% |        2283     23.08%     57.28% |        2230     22.55%     79.83% |        1995     20.17%    100.00%
system.ruby.L1Cache_Controller.M.Fwd_GETS::total         9891                      
system.ruby.L1Cache_Controller.IS.Data_Exclusive |       84124      2.40%      2.40% |       13825      0.39%      2.79% |     3400824     96.91%     99.70% |       10587      0.30%    100.00%
system.ruby.L1Cache_Controller.IS.Data_Exclusive::total      3509360                      
system.ruby.L1Cache_Controller.IS.DataS_fromL1 |        4195     28.66%     28.66% |        3169     21.65%     50.31% |        2900     19.81%     70.13% |        4372     29.87%    100.00%
system.ruby.L1Cache_Controller.IS.DataS_fromL1::total        14636                      
system.ruby.L1Cache_Controller.IS.Data_all_Acks |       65498     34.17%     34.17% |       39604     20.66%     54.82% |       58059     30.29%     85.11% |       28546     14.89%    100.00%
system.ruby.L1Cache_Controller.IS.Data_all_Acks::total       191707                      
system.ruby.L1Cache_Controller.IM.Data   |         285     28.41%     28.41% |         123     12.26%     40.68% |         564     56.23%     96.91% |          31      3.09%    100.00%
system.ruby.L1Cache_Controller.IM.Data::total         1003                      
system.ruby.L1Cache_Controller.IM.Data_all_Acks |       35605      1.01%      1.01% |       14165      0.40%      1.42% |     3450740     98.35%     99.77% |        8202      0.23%    100.00%
system.ruby.L1Cache_Controller.IM.Data_all_Acks::total      3508712                      
system.ruby.L1Cache_Controller.SM.Inv    |           1     25.00%     25.00% |           2     50.00%     75.00% |           1     25.00%    100.00% |           0      0.00%    100.00%
system.ruby.L1Cache_Controller.SM.Inv::total            4                      
system.ruby.L1Cache_Controller.SM.Ack    |        8396     45.36%     45.36% |        3454     18.66%     64.02% |        3784     20.44%     84.46% |        2876     15.54%    100.00%
system.ruby.L1Cache_Controller.SM.Ack::total        18510                      
system.ruby.L1Cache_Controller.SM.Ack_all |        4402     37.71%     37.71% |        2555     21.89%     59.60% |        2804     24.02%     83.63% |        1911     16.37%    100.00%
system.ruby.L1Cache_Controller.SM.Ack_all::total        11672                      
system.ruby.L1Cache_Controller.M_I.Ifetch |           1    100.00%    100.00% |           0      0.00%    100.00% |           0      0.00%    100.00% |           0      0.00%    100.00%
system.ruby.L1Cache_Controller.M_I.Ifetch::total            1                      
system.ruby.L1Cache_Controller.M_I.WB_Ack |      112202      1.61%      1.61% |       18961      0.27%      1.88% |     6846539     97.96%     99.84% |       11231      0.16%    100.00%
system.ruby.L1Cache_Controller.M_I.WB_Ack::total      6988933                      
system.ruby.L2Cache_Controller.L1_GET_INSTR       168541      0.00%      0.00%
system.ruby.L2Cache_Controller.L1_GETS        3547519      0.00%      0.00%
system.ruby.L2Cache_Controller.L1_GETX        3509719      0.00%      0.00%
system.ruby.L2Cache_Controller.L1_UPGRADE        10673      0.00%      0.00%
system.ruby.L2Cache_Controller.L1_PUTX        6988933      0.00%      0.00%
system.ruby.L2Cache_Controller.L2_Replacement      1594433      0.00%      0.00%
system.ruby.L2Cache_Controller.L2_Replacement_clean      1116165      0.00%      0.00%
system.ruby.L2Cache_Controller.Mem_Data       2718585      0.00%      0.00%
system.ruby.L2Cache_Controller.Mem_Ack        2710607      0.00%      0.00%
system.ruby.L2Cache_Controller.WB_Data          23525      0.00%      0.00%
system.ruby.L2Cache_Controller.WB_Data_clean         4745      0.00%      0.00%
system.ruby.L2Cache_Controller.Ack              36899      0.00%      0.00%
system.ruby.L2Cache_Controller.Ack_all          37656      0.00%      0.00%
system.ruby.L2Cache_Controller.Unblock          14636      0.00%      0.00%
system.ruby.L2Cache_Controller.Exclusive_Unblock      7029744      0.00%      0.00%
system.ruby.L2Cache_Controller.MEM_Inv             18      0.00%      0.00%
system.ruby.L2Cache_Controller.NP.L1_GET_INSTR        28565      0.00%      0.00%
system.ruby.L2Cache_Controller.NP.L1_GETS      1634461      0.00%      0.00%
system.ruby.L2Cache_Controller.NP.L1_GETX      1055559      0.00%      0.00%
system.ruby.L2Cache_Controller.SS.L1_GET_INSTR       139957      0.00%      0.00%
system.ruby.L2Cache_Controller.SS.L1_GETS        23085      0.00%      0.00%
system.ruby.L2Cache_Controller.SS.L1_GETX         1003      0.00%      0.00%
system.ruby.L2Cache_Controller.SS.L1_UPGRADE        10669      0.00%      0.00%
system.ruby.L2Cache_Controller.SS.L2_Replacement          940      0.00%      0.00%
system.ruby.L2Cache_Controller.SS.L2_Replacement_clean        28730      0.00%      0.00%
system.ruby.L2Cache_Controller.M.L1_GET_INSTR           18      0.00%      0.00%
system.ruby.L2Cache_Controller.M.L1_GETS      1874940      0.00%      0.00%
system.ruby.L2Cache_Controller.M.L1_GETX      2448812      0.00%      0.00%
system.ruby.L2Cache_Controller.M.L2_Replacement      1591892      0.00%      0.00%
system.ruby.L2Cache_Controller.M.L2_Replacement_clean      1067418      0.00%      0.00%
system.ruby.L2Cache_Controller.M.MEM_Inv            7      0.00%      0.00%
system.ruby.L2Cache_Controller.MT.L1_GETS        14636      0.00%      0.00%
system.ruby.L2Cache_Controller.MT.L1_GETX         4341      0.00%      0.00%
system.ruby.L2Cache_Controller.MT.L1_PUTX      6988933      0.00%      0.00%
system.ruby.L2Cache_Controller.MT.L2_Replacement         1601      0.00%      0.00%
system.ruby.L2Cache_Controller.MT.L2_Replacement_clean        20017      0.00%      0.00%
system.ruby.L2Cache_Controller.MT.MEM_Inv            2      0.00%      0.00%
system.ruby.L2Cache_Controller.M_I.L1_GET_INSTR            1      0.00%      0.00%
system.ruby.L2Cache_Controller.M_I.L1_GETS            1      0.00%      0.00%
system.ruby.L2Cache_Controller.M_I.Mem_Ack      2710607      0.00%      0.00%
system.ruby.L2Cache_Controller.M_I.MEM_Inv            7      0.00%      0.00%
system.ruby.L2Cache_Controller.MT_I.WB_Data         1223      0.00%      0.00%
system.ruby.L2Cache_Controller.MT_I.Ack_all          380      0.00%      0.00%
system.ruby.L2Cache_Controller.MT_I.MEM_Inv            2      0.00%      0.00%
system.ruby.L2Cache_Controller.MCT_I.WB_Data        12411      0.00%      0.00%
system.ruby.L2Cache_Controller.MCT_I.Ack_all         7606      0.00%      0.00%
system.ruby.L2Cache_Controller.I_I.Ack          35748      0.00%      0.00%
system.ruby.L2Cache_Controller.I_I.Ack_all        28730      0.00%      0.00%
system.ruby.L2Cache_Controller.S_I.Ack           1151      0.00%      0.00%
system.ruby.L2Cache_Controller.S_I.Ack_all          940      0.00%      0.00%
system.ruby.L2Cache_Controller.ISS.L1_GETS           41      0.00%      0.00%
system.ruby.L2Cache_Controller.ISS.Mem_Data      1634420      0.00%      0.00%
system.ruby.L2Cache_Controller.IS.Mem_Data        28606      0.00%      0.00%
system.ruby.L2Cache_Controller.IM.Mem_Data      1055559      0.00%      0.00%
system.ruby.L2Cache_Controller.SS_MB.L1_GETS           94      0.00%      0.00%
system.ruby.L2Cache_Controller.SS_MB.L1_GETX            2      0.00%      0.00%
system.ruby.L2Cache_Controller.SS_MB.L1_UPGRADE            4      0.00%      0.00%
system.ruby.L2Cache_Controller.SS_MB.Exclusive_Unblock        11672      0.00%      0.00%
system.ruby.L2Cache_Controller.MT_MB.L1_GETS          257      0.00%      0.00%
system.ruby.L2Cache_Controller.MT_MB.L1_GETX            2      0.00%      0.00%
system.ruby.L2Cache_Controller.MT_MB.Exclusive_Unblock      7018072      0.00%      0.00%
system.ruby.L2Cache_Controller.MT_IIB.L1_GETS            4      0.00%      0.00%
system.ruby.L2Cache_Controller.MT_IIB.WB_Data         9873      0.00%      0.00%
system.ruby.L2Cache_Controller.MT_IIB.WB_Data_clean         4733      0.00%      0.00%
system.ruby.L2Cache_Controller.MT_IIB.Unblock           30      0.00%      0.00%
system.ruby.L2Cache_Controller.MT_IB.WB_Data           18      0.00%      0.00%
system.ruby.L2Cache_Controller.MT_IB.WB_Data_clean           12      0.00%      0.00%
system.ruby.L2Cache_Controller.MT_SB.Unblock        14606      0.00%      0.00%

---------- End Simulation Statistics   ----------
