
---------- Begin Simulation Statistics ----------
sim_seconds                                  0.814660                       # Number of seconds simulated
sim_ticks                                814659799000                       # Number of ticks simulated
final_tick                               54327211603501                       # Number of ticks from beginning of simulation (restored from checkpoints and never reset)
sim_freq                                 1000000000000                       # Frequency of simulated ticks
host_inst_rate                                  99118                       # Simulator instruction rate (inst/s)
host_op_rate                                   164145                       # Simulator op (including micro ops) rate (op/s)
host_tick_rate                              288575252                       # Simulator tick rate (ticks/s)
host_mem_usage                                1892608                       # Number of bytes of host memory used
host_seconds                                  2823.04                       # Real time elapsed on the host
sim_insts                                   279813660                       # Number of instructions simulated
sim_ops                                     463388490                       # Number of ops (including micro ops) simulated
system.voltage_domain.voltage                       1                       # Voltage in Volts
system.clk_domain.clock                          1000                       # Clock period in ticks
system.mem_ctrls.bytes_read::ruby.dir_cntrl0    174051904                       # Number of bytes read from this memory
system.mem_ctrls.bytes_read::total          174051904                       # Number of bytes read from this memory
system.mem_ctrls.bytes_written::ruby.dir_cntrl0    101920640                       # Number of bytes written to this memory
system.mem_ctrls.bytes_written::total       101920640                       # Number of bytes written to this memory
system.mem_ctrls.num_reads::ruby.dir_cntrl0      2719561                       # Number of read requests responded to by this memory
system.mem_ctrls.num_reads::total             2719561                       # Number of read requests responded to by this memory
system.mem_ctrls.num_writes::ruby.dir_cntrl0      1592510                       # Number of write requests responded to by this memory
system.mem_ctrls.num_writes::total            1592510                       # Number of write requests responded to by this memory
system.mem_ctrls.bw_read::ruby.dir_cntrl0    213649801                       # Total read bandwidth from this memory (bytes/s)
system.mem_ctrls.bw_read::total             213649801                       # Total read bandwidth from this memory (bytes/s)
system.mem_ctrls.bw_write::ruby.dir_cntrl0    125108223                       # Write bandwidth from this memory (bytes/s)
system.mem_ctrls.bw_write::total            125108223                       # Write bandwidth from this memory (bytes/s)
system.mem_ctrls.bw_total::ruby.dir_cntrl0    338758024                       # Total bandwidth to/from this memory (bytes/s)
system.mem_ctrls.bw_total::total            338758024                       # Total bandwidth to/from this memory (bytes/s)
system.mem_ctrls.readReqs                     2719561                       # Number of read requests accepted
system.mem_ctrls.writeReqs                    1592510                       # Number of write requests accepted
system.mem_ctrls.readBursts                   2719561                       # Number of DRAM read bursts, including those serviced by the write queue
system.mem_ctrls.writeBursts                  1592510                       # Number of DRAM write bursts, including those merged in the write queue
system.mem_ctrls.bytesReadDRAM              174008768                       # Total number of bytes read from DRAM
system.mem_ctrls.bytesReadWrQ                   43136                       # Total number of bytes read from write queue
system.mem_ctrls.bytesWritten               101918848                       # Total number of bytes written to DRAM
system.mem_ctrls.bytesReadSys               174051904                       # Total read bytes from the system interface side
system.mem_ctrls.bytesWrittenSys            101920640                       # Total written bytes from the system interface side
system.mem_ctrls.servicedByWrQ                    674                       # Number of DRAM read bursts serviced by the write queue
system.mem_ctrls.mergedWrBursts                     3                       # Number of DRAM write bursts merged with an existing one
system.mem_ctrls.neitherReadNorWriteReqs            0                       # Number of requests that are neither read nor write
system.mem_ctrls.perBankRdBursts::0            169879                       # Per bank write bursts
system.mem_ctrls.perBankRdBursts::1            174360                       # Per bank write bursts
system.mem_ctrls.perBankRdBursts::2            171656                       # Per bank write bursts
system.mem_ctrls.perBankRdBursts::3            174138                       # Per bank write bursts
system.mem_ctrls.perBankRdBursts::4            173541                       # Per bank write bursts
system.mem_ctrls.perBankRdBursts::5            171490                       # Per bank write bursts
system.mem_ctrls.perBankRdBursts::6            173552                       # Per bank write bursts
system.mem_ctrls.perBankRdBursts::7            170964                       # Per bank write bursts
system.mem_ctrls.perBankRdBursts::8            169885                       # Per bank write bursts
system.mem_ctrls.perBankRdBursts::9            168830                       # Per bank write bursts
system.mem_ctrls.perBankRdBursts::10           167999                       # Per bank write bursts
system.mem_ctrls.perBankRdBursts::11           166385                       # Per bank write bursts
system.mem_ctrls.perBankRdBursts::12           167733                       # Per bank write bursts
system.mem_ctrls.perBankRdBursts::13           167855                       # Per bank write bursts
system.mem_ctrls.perBankRdBursts::14           165919                       # Per bank write bursts
system.mem_ctrls.perBankRdBursts::15           164701                       # Per bank write bursts
system.mem_ctrls.perBankWrBursts::0             99088                       # Per bank write bursts
system.mem_ctrls.perBankWrBursts::1            104669                       # Per bank write bursts
system.mem_ctrls.perBankWrBursts::2            101020                       # Per bank write bursts
system.mem_ctrls.perBankWrBursts::3            100898                       # Per bank write bursts
system.mem_ctrls.perBankWrBursts::4            101001                       # Per bank write bursts
system.mem_ctrls.perBankWrBursts::5            100442                       # Per bank write bursts
system.mem_ctrls.perBankWrBursts::6            101850                       # Per bank write bursts
system.mem_ctrls.perBankWrBursts::7             99996                       # Per bank write bursts
system.mem_ctrls.perBankWrBursts::8            100077                       # Per bank write bursts
system.mem_ctrls.perBankWrBursts::9             99065                       # Per bank write bursts
system.mem_ctrls.perBankWrBursts::10            99138                       # Per bank write bursts
system.mem_ctrls.perBankWrBursts::11            97932                       # Per bank write bursts
system.mem_ctrls.perBankWrBursts::12            97049                       # Per bank write bursts
system.mem_ctrls.perBankWrBursts::13            97528                       # Per bank write bursts
system.mem_ctrls.perBankWrBursts::14            96909                       # Per bank write bursts
system.mem_ctrls.perBankWrBursts::15            95820                       # Per bank write bursts
system.mem_ctrls.numRdRetry                         0                       # Number of times read queue was full causing retry
system.mem_ctrls.numWrRetry                         0                       # Number of times write queue was full causing retry
system.mem_ctrls.totGap                  814659734000                       # Total gap between requests
system.mem_ctrls.readPktSize::0                     0                       # Read request sizes (log2)
system.mem_ctrls.readPktSize::1                     0                       # Read request sizes (log2)
system.mem_ctrls.readPktSize::2                     0                       # Read request sizes (log2)
system.mem_ctrls.readPktSize::3                     0                       # Read request sizes (log2)
system.mem_ctrls.readPktSize::4                     0                       # Read request sizes (log2)
system.mem_ctrls.readPktSize::5                     0                       # Read request sizes (log2)
system.mem_ctrls.readPktSize::6               2719561                       # Read request sizes (log2)
system.mem_ctrls.writePktSize::0                    0                       # Write request sizes (log2)
system.mem_ctrls.writePktSize::1                    0                       # Write request sizes (log2)
system.mem_ctrls.writePktSize::2                    0                       # Write request sizes (log2)
system.mem_ctrls.writePktSize::3                    0                       # Write request sizes (log2)
system.mem_ctrls.writePktSize::4                    0                       # Write request sizes (log2)
system.mem_ctrls.writePktSize::5                    0                       # Write request sizes (log2)
system.mem_ctrls.writePktSize::6              1592510                       # Write request sizes (log2)
system.mem_ctrls.rdQLenPdf::0                 2700100                       # What read queue length does an incoming req see
system.mem_ctrls.rdQLenPdf::1                   18696                       # What read queue length does an incoming req see
system.mem_ctrls.rdQLenPdf::2                      89                       # What read queue length does an incoming req see
system.mem_ctrls.rdQLenPdf::3                       2                       # What read queue length does an incoming req see
system.mem_ctrls.rdQLenPdf::4                       0                       # What read queue length does an incoming req see
system.mem_ctrls.rdQLenPdf::5                       0                       # What read queue length does an incoming req see
system.mem_ctrls.rdQLenPdf::6                       0                       # What read queue length does an incoming req see
system.mem_ctrls.rdQLenPdf::7                       0                       # What read queue length does an incoming req see
system.mem_ctrls.rdQLenPdf::8                       0                       # What read queue length does an incoming req see
system.mem_ctrls.rdQLenPdf::9                       0                       # What read queue length does an incoming req see
system.mem_ctrls.rdQLenPdf::10                      0                       # What read queue length does an incoming req see
system.mem_ctrls.rdQLenPdf::11                      0                       # What read queue length does an incoming req see
system.mem_ctrls.rdQLenPdf::12                      0                       # What read queue length does an incoming req see
system.mem_ctrls.rdQLenPdf::13                      0                       # What read queue length does an incoming req see
system.mem_ctrls.rdQLenPdf::14                      0                       # What read queue length does an incoming req see
system.mem_ctrls.rdQLenPdf::15                      0                       # What read queue length does an incoming req see
system.mem_ctrls.rdQLenPdf::16                      0                       # What read queue length does an incoming req see
system.mem_ctrls.rdQLenPdf::17                      0                       # What read queue length does an incoming req see
system.mem_ctrls.rdQLenPdf::18                      0                       # What read queue length does an incoming req see
system.mem_ctrls.rdQLenPdf::19                      0                       # What read queue length does an incoming req see
system.mem_ctrls.rdQLenPdf::20                      0                       # What read queue length does an incoming req see
system.mem_ctrls.rdQLenPdf::21                      0                       # What read queue length does an incoming req see
system.mem_ctrls.rdQLenPdf::22                      0                       # What read queue length does an incoming req see
system.mem_ctrls.rdQLenPdf::23                      0                       # What read queue length does an incoming req see
system.mem_ctrls.rdQLenPdf::24                      0                       # What read queue length does an incoming req see
system.mem_ctrls.rdQLenPdf::25                      0                       # What read queue length does an incoming req see
system.mem_ctrls.rdQLenPdf::26                      0                       # What read queue length does an incoming req see
system.mem_ctrls.rdQLenPdf::27                      0                       # What read queue length does an incoming req see
system.mem_ctrls.rdQLenPdf::28                      0                       # What read queue length does an incoming req see
system.mem_ctrls.rdQLenPdf::29                      0                       # What read queue length does an incoming req see
system.mem_ctrls.rdQLenPdf::30                      0                       # What read queue length does an incoming req see
system.mem_ctrls.rdQLenPdf::31                      0                       # What read queue length does an incoming req see
system.mem_ctrls.wrQLenPdf::0                       0                       # What write queue length does an incoming req see
system.mem_ctrls.wrQLenPdf::1                       1                       # What write queue length does an incoming req see
system.mem_ctrls.wrQLenPdf::2                       1                       # What write queue length does an incoming req see
system.mem_ctrls.wrQLenPdf::3                       1                       # What write queue length does an incoming req see
system.mem_ctrls.wrQLenPdf::4                       1                       # What write queue length does an incoming req see
system.mem_ctrls.wrQLenPdf::5                       1                       # What write queue length does an incoming req see
system.mem_ctrls.wrQLenPdf::6                       1                       # What write queue length does an incoming req see
system.mem_ctrls.wrQLenPdf::7                       1                       # What write queue length does an incoming req see
system.mem_ctrls.wrQLenPdf::8                       1                       # What write queue length does an incoming req see
system.mem_ctrls.wrQLenPdf::9                       1                       # What write queue length does an incoming req see
system.mem_ctrls.wrQLenPdf::10                      1                       # What write queue length does an incoming req see
system.mem_ctrls.wrQLenPdf::11                      1                       # What write queue length does an incoming req see
system.mem_ctrls.wrQLenPdf::12                      1                       # What write queue length does an incoming req see
system.mem_ctrls.wrQLenPdf::13                      1                       # What write queue length does an incoming req see
system.mem_ctrls.wrQLenPdf::14                      1                       # What write queue length does an incoming req see
system.mem_ctrls.wrQLenPdf::15                   2609                       # What write queue length does an incoming req see
system.mem_ctrls.wrQLenPdf::16                   2863                       # What write queue length does an incoming req see
system.mem_ctrls.wrQLenPdf::17                  98835                       # What write queue length does an incoming req see
system.mem_ctrls.wrQLenPdf::18                  99256                       # What write queue length does an incoming req see
system.mem_ctrls.wrQLenPdf::19                  99224                       # What write queue length does an incoming req see
system.mem_ctrls.wrQLenPdf::20                  99244                       # What write queue length does an incoming req see
system.mem_ctrls.wrQLenPdf::21                  99266                       # What write queue length does an incoming req see
system.mem_ctrls.wrQLenPdf::22                  99216                       # What write queue length does an incoming req see
system.mem_ctrls.wrQLenPdf::23                  99233                       # What write queue length does an incoming req see
system.mem_ctrls.wrQLenPdf::24                  99240                       # What write queue length does an incoming req see
system.mem_ctrls.wrQLenPdf::25                  99193                       # What write queue length does an incoming req see
system.mem_ctrls.wrQLenPdf::26                  99208                       # What write queue length does an incoming req see
system.mem_ctrls.wrQLenPdf::27                  99207                       # What write queue length does an incoming req see
system.mem_ctrls.wrQLenPdf::28                  99198                       # What write queue length does an incoming req see
system.mem_ctrls.wrQLenPdf::29                  99172                       # What write queue length does an incoming req see
system.mem_ctrls.wrQLenPdf::30                  99184                       # What write queue length does an incoming req see
system.mem_ctrls.wrQLenPdf::31                  99172                       # What write queue length does an incoming req see
system.mem_ctrls.wrQLenPdf::32                  99154                       # What write queue length does an incoming req see
system.mem_ctrls.wrQLenPdf::33                      9                       # What write queue length does an incoming req see
system.mem_ctrls.wrQLenPdf::34                      4                       # What write queue length does an incoming req see
system.mem_ctrls.wrQLenPdf::35                      2                       # What write queue length does an incoming req see
system.mem_ctrls.wrQLenPdf::36                      1                       # What write queue length does an incoming req see
system.mem_ctrls.wrQLenPdf::37                      1                       # What write queue length does an incoming req see
system.mem_ctrls.wrQLenPdf::38                      1                       # What write queue length does an incoming req see
system.mem_ctrls.wrQLenPdf::39                      1                       # What write queue length does an incoming req see
system.mem_ctrls.wrQLenPdf::40                      0                       # What write queue length does an incoming req see
system.mem_ctrls.wrQLenPdf::41                      0                       # What write queue length does an incoming req see
system.mem_ctrls.wrQLenPdf::42                      0                       # What write queue length does an incoming req see
system.mem_ctrls.wrQLenPdf::43                      0                       # What write queue length does an incoming req see
system.mem_ctrls.wrQLenPdf::44                      0                       # What write queue length does an incoming req see
system.mem_ctrls.wrQLenPdf::45                      0                       # What write queue length does an incoming req see
system.mem_ctrls.wrQLenPdf::46                      0                       # What write queue length does an incoming req see
system.mem_ctrls.wrQLenPdf::47                      0                       # What write queue length does an incoming req see
system.mem_ctrls.wrQLenPdf::48                      0                       # What write queue length does an incoming req see
system.mem_ctrls.wrQLenPdf::49                      0                       # What write queue length does an incoming req see
system.mem_ctrls.wrQLenPdf::50                      0                       # What write queue length does an incoming req see
system.mem_ctrls.wrQLenPdf::51                      0                       # What write queue length does an incoming req see
system.mem_ctrls.wrQLenPdf::52                      0                       # What write queue length does an incoming req see
system.mem_ctrls.wrQLenPdf::53                      0                       # What write queue length does an incoming req see
system.mem_ctrls.wrQLenPdf::54                      0                       # What write queue length does an incoming req see
system.mem_ctrls.wrQLenPdf::55                      0                       # What write queue length does an incoming req see
system.mem_ctrls.wrQLenPdf::56                      0                       # What write queue length does an incoming req see
system.mem_ctrls.wrQLenPdf::57                      0                       # What write queue length does an incoming req see
system.mem_ctrls.wrQLenPdf::58                      0                       # What write queue length does an incoming req see
system.mem_ctrls.wrQLenPdf::59                      0                       # What write queue length does an incoming req see
system.mem_ctrls.wrQLenPdf::60                      0                       # What write queue length does an incoming req see
system.mem_ctrls.wrQLenPdf::61                      0                       # What write queue length does an incoming req see
system.mem_ctrls.wrQLenPdf::62                      0                       # What write queue length does an incoming req see
system.mem_ctrls.wrQLenPdf::63                      0                       # What write queue length does an incoming req see
system.mem_ctrls.bytesPerActivate::samples      3771454                       # Bytes accessed per row activation
system.mem_ctrls.bytesPerActivate::mean     73.162132                       # Bytes accessed per row activation
system.mem_ctrls.bytesPerActivate::gmean    69.653172                       # Bytes accessed per row activation
system.mem_ctrls.bytesPerActivate::stdev    40.969074                       # Bytes accessed per row activation
system.mem_ctrls.bytesPerActivate::0-127      3355835     88.98%     88.98% # Bytes accessed per row activation
system.mem_ctrls.bytesPerActivate::128-255       396913     10.52%     99.50% # Bytes accessed per row activation
system.mem_ctrls.bytesPerActivate::256-383        11158      0.30%     99.80% # Bytes accessed per row activation
system.mem_ctrls.bytesPerActivate::384-511         2364      0.06%     99.86% # Bytes accessed per row activation
system.mem_ctrls.bytesPerActivate::512-639          578      0.02%     99.88% # Bytes accessed per row activation
system.mem_ctrls.bytesPerActivate::640-767          451      0.01%     99.89% # Bytes accessed per row activation
system.mem_ctrls.bytesPerActivate::768-895          369      0.01%     99.90% # Bytes accessed per row activation
system.mem_ctrls.bytesPerActivate::896-1023          320      0.01%     99.91% # Bytes accessed per row activation
system.mem_ctrls.bytesPerActivate::1024-1151         3466      0.09%    100.00% # Bytes accessed per row activation
system.mem_ctrls.bytesPerActivate::total      3771454                       # Bytes accessed per row activation
system.mem_ctrls.rdPerTurnAround::samples        99150                       # Reads before turning the bus around for writes
system.mem_ctrls.rdPerTurnAround::mean      27.701200                       # Reads before turning the bus around for writes
system.mem_ctrls.rdPerTurnAround::stdev     98.544525                       # Reads before turning the bus around for writes
system.mem_ctrls.rdPerTurnAround::0-1023        99147    100.00%    100.00% # Reads before turning the bus around for writes
system.mem_ctrls.rdPerTurnAround::1024-2047            1      0.00%    100.00% # Reads before turning the bus around for writes
system.mem_ctrls.rdPerTurnAround::2048-3071            1      0.00%    100.00% # Reads before turning the bus around for writes
system.mem_ctrls.rdPerTurnAround::29696-30719            1      0.00%    100.00% # Reads before turning the bus around for writes
system.mem_ctrls.rdPerTurnAround::total         99150                       # Reads before turning the bus around for writes
system.mem_ctrls.wrPerTurnAround::samples        99150                       # Writes before turning the bus around for reads
system.mem_ctrls.wrPerTurnAround::mean      16.061341                       # Writes before turning the bus around for reads
system.mem_ctrls.wrPerTurnAround::gmean     16.056817                       # Writes before turning the bus around for reads
system.mem_ctrls.wrPerTurnAround::stdev      0.420181                       # Writes before turning the bus around for reads
system.mem_ctrls.wrPerTurnAround::16            96327     97.15%     97.15% # Writes before turning the bus around for reads
system.mem_ctrls.wrPerTurnAround::17              137      0.14%     97.29% # Writes before turning the bus around for reads
system.mem_ctrls.wrPerTurnAround::18             2551      2.57%     99.86% # Writes before turning the bus around for reads
system.mem_ctrls.wrPerTurnAround::19               33      0.03%     99.90% # Writes before turning the bus around for reads
system.mem_ctrls.wrPerTurnAround::20               21      0.02%     99.92% # Writes before turning the bus around for reads
system.mem_ctrls.wrPerTurnAround::21               21      0.02%     99.94% # Writes before turning the bus around for reads
system.mem_ctrls.wrPerTurnAround::22               15      0.02%     99.95% # Writes before turning the bus around for reads
system.mem_ctrls.wrPerTurnAround::23                2      0.00%     99.96% # Writes before turning the bus around for reads
system.mem_ctrls.wrPerTurnAround::24               27      0.03%     99.98% # Writes before turning the bus around for reads
system.mem_ctrls.wrPerTurnAround::25                1      0.00%     99.98% # Writes before turning the bus around for reads
system.mem_ctrls.wrPerTurnAround::28               11      0.01%    100.00% # Writes before turning the bus around for reads
system.mem_ctrls.wrPerTurnAround::34                2      0.00%    100.00% # Writes before turning the bus around for reads
system.mem_ctrls.wrPerTurnAround::42                1      0.00%    100.00% # Writes before turning the bus around for reads
system.mem_ctrls.wrPerTurnAround::48                1      0.00%    100.00% # Writes before turning the bus around for reads
system.mem_ctrls.wrPerTurnAround::total         99150                       # Writes before turning the bus around for reads
system.mem_ctrls.totQLat                  67961011612                       # Total ticks spent queuing
system.mem_ctrls.totMemAccLat            118940142862                       # Total ticks spent from burst creation until serviced by the DRAM
system.mem_ctrls.totBusLat                13594435000                       # Total ticks spent in databus transfers
system.mem_ctrls.avgQLat                     24995.89                       # Average queueing delay per DRAM burst
system.mem_ctrls.avgBusLat                    5000.00                       # Average bus latency per DRAM burst
system.mem_ctrls.avgMemAccLat                43745.89                       # Average memory access latency per DRAM burst
system.mem_ctrls.avgRdBW                       213.60                       # Average DRAM read bandwidth in MiByte/s
system.mem_ctrls.avgWrBW                       125.11                       # Average achieved write bandwidth in MiByte/s
system.mem_ctrls.avgRdBWSys                    213.65                       # Average system read bandwidth in MiByte/s
system.mem_ctrls.avgWrBWSys                    125.11                       # Average system write bandwidth in MiByte/s
system.mem_ctrls.peakBW                      12800.00                       # Theoretical peak bandwidth in MiByte/s
system.mem_ctrls.busUtil                         2.65                       # Data bus utilization in percentage
system.mem_ctrls.busUtilRead                     1.67                       # Data bus utilization in percentage for reads
system.mem_ctrls.busUtilWrite                    0.98                       # Data bus utilization in percentage for writes
system.mem_ctrls.avgRdQLen                       1.00                       # Average read queue length when enqueuing
system.mem_ctrls.avgWrQLen                      25.53                       # Average write queue length when enqueuing
system.mem_ctrls.readRowHits                   461755                       # Number of row buffer hits during reads
system.mem_ctrls.writeRowHits                   78160                       # Number of row buffer hits during writes
system.mem_ctrls.readRowHitRate                 16.98                       # Row buffer hit rate for reads
system.mem_ctrls.writeRowHitRate                 4.91                       # Row buffer hit rate for writes
system.mem_ctrls.avgGap                     188925.40                       # Average gap between requests
system.mem_ctrls.pageHitRate                    12.52                       # Row buffer hit rate, read and write combined
system.mem_ctrls_0.actEnergy              14478503760                       # Energy for activate commands per rank (pJ)
system.mem_ctrls_0.preEnergy               7899977250                       # Energy for precharge commands per rank (pJ)
system.mem_ctrls_0.readEnergy             10869807000                       # Energy for read commands per rank (pJ)
system.mem_ctrls_0.writeEnergy             5242086720                       # Energy for write commands per rank (pJ)
system.mem_ctrls_0.refreshEnergy          53736992400                       # Energy for refresh commands per rank (pJ)
system.mem_ctrls_0.actBackEnergy         511636398975                       # Energy for active background per rank (pJ)
system.mem_ctrls_0.preBackEnergy          44836761000                       # Energy for precharge background per rank (pJ)
system.mem_ctrls_0.totalEnergy           648700527105                       # Total energy per rank (pJ)
system.mem_ctrls_0.averagePower            788.468981                       # Core power per rank (mW)
system.mem_ctrls_0.memoryStateTime::IDLE  67960750250                       # Time in different power states
system.mem_ctrls_0.memoryStateTime::REF   27203280000                       # Time in different power states
system.mem_ctrls_0.memoryStateTime::PRE_PDN            0                       # Time in different power states
system.mem_ctrls_0.memoryStateTime::ACT  719495751250                       # Time in different power states
system.mem_ctrls_0.memoryStateTime::ACT_PDN            0                       # Time in different power states
system.mem_ctrls_1.actEnergy              14074263000                       # Energy for activate commands per rank (pJ)
system.mem_ctrls_1.preEnergy               7679409375                       # Energy for precharge commands per rank (pJ)
system.mem_ctrls_1.readEnergy             10553556000                       # Energy for read commands per rank (pJ)
system.mem_ctrls_1.writeEnergy             5077196640                       # Energy for write commands per rank (pJ)
system.mem_ctrls_1.refreshEnergy          53736992400                       # Energy for refresh commands per rank (pJ)
system.mem_ctrls_1.actBackEnergy         510844067910                       # Energy for active background per rank (pJ)
system.mem_ctrls_1.preBackEnergy          45531788250                       # Energy for precharge background per rank (pJ)
system.mem_ctrls_1.totalEnergy           647497273575                       # Total energy per rank (pJ)
system.mem_ctrls_1.averagePower            787.006475                       # Core power per rank (mW)
system.mem_ctrls_1.memoryStateTime::IDLE  69211290251                       # Time in different power states
system.mem_ctrls_1.memoryStateTime::REF   27203280000                       # Time in different power states
system.mem_ctrls_1.memoryStateTime::PRE_PDN            0                       # Time in different power states
system.mem_ctrls_1.memoryStateTime::ACT  718245194749                       # Time in different power states
system.mem_ctrls_1.memoryStateTime::ACT_PDN            0                       # Time in different power states
system.cpu_voltage_domain.voltage                   1                       # Voltage in Volts
system.cpu_clk_domain.clock                       500                       # Clock period in ticks
system.cpu0.apic_clk_domain.clock                8000                       # Clock period in ticks
system.cpu0.numCycles                      1626302201                       # number of cpu cycles simulated
system.cpu0.numWorkItemsStarted                     0                       # number of work items this cpu started
system.cpu0.numWorkItemsCompleted                   0                       # number of work items this cpu completed
system.cpu0.kern.inst.arm                           0                       # number of arm instructions executed
system.cpu0.kern.inst.quiesce                       0                       # number of quiesce instructions executed
system.cpu0.committedInsts                    1362776                       # Number of instructions committed
system.cpu0.committedOps                      2848914                       # Number of ops (including micro ops) committed
system.cpu0.num_int_alu_accesses              2799989                       # Number of integer alu accesses
system.cpu0.num_fp_alu_accesses                    68                       # Number of float alu accesses
system.cpu0.num_func_calls                      75942                       # number of times a function call or return occured
system.cpu0.num_conditional_control_insts       232908                       # number of instructions that are conditional controls
system.cpu0.num_int_insts                     2799989                       # number of integer instructions
system.cpu0.num_fp_insts                           68                       # number of float instructions
system.cpu0.num_int_register_reads            5447591                       # number of times the integer registers were read
system.cpu0.num_int_register_writes           2291222                       # number of times the integer registers were written
system.cpu0.num_fp_register_reads                  70                       # number of times the floating registers were read
system.cpu0.num_fp_register_writes                 62                       # number of times the floating registers were written
system.cpu0.num_cc_register_reads             1743735                       # number of times the CC registers were read
system.cpu0.num_cc_register_writes             949589                       # number of times the CC registers were written
system.cpu0.num_mem_refs                       579056                       # number of memory refs
system.cpu0.num_load_insts                     360228                       # Number of load instructions
system.cpu0.num_store_insts                    218828                       # Number of store instructions
system.cpu0.num_idle_cycles              1618740191.375592                       # Number of idle cycles
system.cpu0.num_busy_cycles              7562009.624408                       # Number of busy cycles
system.cpu0.not_idle_fraction                0.004650                       # Percentage of non-idle cycles
system.cpu0.idle_fraction                    0.995350                       # Percentage of idle cycles
system.cpu0.Branches                           332061                       # Number of branches fetched
system.cpu0.op_class::No_OpClass                31075      1.09%      1.09% # Class of executed instruction
system.cpu0.op_class::IntAlu                  2228647     78.21%     79.30% # Class of executed instruction
system.cpu0.op_class::IntMult                    3888      0.14%     79.44% # Class of executed instruction
system.cpu0.op_class::IntDiv                     6785      0.24%     79.68% # Class of executed instruction
system.cpu0.op_class::FloatAdd                     24      0.00%     79.68% # Class of executed instruction
system.cpu0.op_class::FloatCmp                      0      0.00%     79.68% # Class of executed instruction
system.cpu0.op_class::FloatCvt                      0      0.00%     79.68% # Class of executed instruction
system.cpu0.op_class::FloatMult                     0      0.00%     79.68% # Class of executed instruction
system.cpu0.op_class::FloatDiv                      0      0.00%     79.68% # Class of executed instruction
system.cpu0.op_class::FloatSqrt                     0      0.00%     79.68% # Class of executed instruction
system.cpu0.op_class::SimdAdd                       0      0.00%     79.68% # Class of executed instruction
system.cpu0.op_class::SimdAddAcc                    0      0.00%     79.68% # Class of executed instruction
system.cpu0.op_class::SimdAlu                       0      0.00%     79.68% # Class of executed instruction
system.cpu0.op_class::SimdCmp                       0      0.00%     79.68% # Class of executed instruction
system.cpu0.op_class::SimdCvt                       0      0.00%     79.68% # Class of executed instruction
system.cpu0.op_class::SimdMisc                      0      0.00%     79.68% # Class of executed instruction
system.cpu0.op_class::SimdMult                      0      0.00%     79.68% # Class of executed instruction
system.cpu0.op_class::SimdMultAcc                   0      0.00%     79.68% # Class of executed instruction
system.cpu0.op_class::SimdShift                     0      0.00%     79.68% # Class of executed instruction
system.cpu0.op_class::SimdShiftAcc                  0      0.00%     79.68% # Class of executed instruction
system.cpu0.op_class::SimdSqrt                      0      0.00%     79.68% # Class of executed instruction
system.cpu0.op_class::SimdFloatAdd                  0      0.00%     79.68% # Class of executed instruction
system.cpu0.op_class::SimdFloatAlu                  0      0.00%     79.68% # Class of executed instruction
system.cpu0.op_class::SimdFloatCmp                  0      0.00%     79.68% # Class of executed instruction
system.cpu0.op_class::SimdFloatCvt                  0      0.00%     79.68% # Class of executed instruction
system.cpu0.op_class::SimdFloatDiv                  0      0.00%     79.68% # Class of executed instruction
system.cpu0.op_class::SimdFloatMisc                 0      0.00%     79.68% # Class of executed instruction
system.cpu0.op_class::SimdFloatMult                 0      0.00%     79.68% # Class of executed instruction
system.cpu0.op_class::SimdFloatMultAcc              0      0.00%     79.68% # Class of executed instruction
system.cpu0.op_class::SimdFloatSqrt                 0      0.00%     79.68% # Class of executed instruction
system.cpu0.op_class::MemRead                  360228     12.64%     92.32% # Class of executed instruction
system.cpu0.op_class::MemWrite                 218828      7.68%    100.00% # Class of executed instruction
system.cpu0.op_class::IprAccess                     0      0.00%    100.00% # Class of executed instruction
system.cpu0.op_class::InstPrefetch                  0      0.00%    100.00% # Class of executed instruction
system.cpu0.op_class::total                   2849475                       # Class of executed instruction
system.cpu1.apic_clk_domain.clock                8000                       # Clock period in ticks
system.cpu1.numCycles                      1627085321                       # number of cpu cycles simulated
system.cpu1.numWorkItemsStarted                     0                       # number of work items this cpu started
system.cpu1.numWorkItemsCompleted                   0                       # number of work items this cpu completed
system.cpu1.kern.inst.arm                           0                       # number of arm instructions executed
system.cpu1.kern.inst.quiesce                       0                       # number of quiesce instructions executed
system.cpu1.committedInsts                    3752750                       # Number of instructions committed
system.cpu1.committedOps                      7362848                       # Number of ops (including micro ops) committed
system.cpu1.num_int_alu_accesses              7248393                       # Number of integer alu accesses
system.cpu1.num_fp_alu_accesses                  1928                       # Number of float alu accesses
system.cpu1.num_func_calls                     172931                       # number of times a function call or return occured
system.cpu1.num_conditional_control_insts       668800                       # number of instructions that are conditional controls
system.cpu1.num_int_insts                     7248393                       # number of integer instructions
system.cpu1.num_fp_insts                         1928                       # number of float instructions
system.cpu1.num_int_register_reads           14168959                       # number of times the integer registers were read
system.cpu1.num_int_register_writes           5885650                       # number of times the integer registers were written
system.cpu1.num_fp_register_reads                3235                       # number of times the floating registers were read
system.cpu1.num_fp_register_writes               1535                       # number of times the floating registers were written
system.cpu1.num_cc_register_reads             4830916                       # number of times the CC registers were read
system.cpu1.num_cc_register_writes            2614999                       # number of times the CC registers were written
system.cpu1.num_mem_refs                      1529024                       # number of memory refs
system.cpu1.num_load_insts                    1000181                       # Number of load instructions
system.cpu1.num_store_insts                    528843                       # Number of store instructions
system.cpu1.num_idle_cycles              1608477079.449168                       # Number of idle cycles
system.cpu1.num_busy_cycles              18608241.550832                       # Number of busy cycles
system.cpu1.not_idle_fraction                0.011437                       # Percentage of non-idle cycles
system.cpu1.idle_fraction                    0.988563                       # Percentage of idle cycles
system.cpu1.Branches                           879562                       # Number of branches fetched
system.cpu1.op_class::No_OpClass                35949      0.49%      0.49% # Class of executed instruction
system.cpu1.op_class::IntAlu                  5781924     78.53%     79.02% # Class of executed instruction
system.cpu1.op_class::IntMult                    8395      0.11%     79.13% # Class of executed instruction
system.cpu1.op_class::IntDiv                     6202      0.08%     79.21% # Class of executed instruction
system.cpu1.op_class::FloatAdd                   1446      0.02%     79.23% # Class of executed instruction
system.cpu1.op_class::FloatCmp                      0      0.00%     79.23% # Class of executed instruction
system.cpu1.op_class::FloatCvt                      0      0.00%     79.23% # Class of executed instruction
system.cpu1.op_class::FloatMult                     0      0.00%     79.23% # Class of executed instruction
system.cpu1.op_class::FloatDiv                      0      0.00%     79.23% # Class of executed instruction
system.cpu1.op_class::FloatSqrt                     0      0.00%     79.23% # Class of executed instruction
system.cpu1.op_class::SimdAdd                       0      0.00%     79.23% # Class of executed instruction
system.cpu1.op_class::SimdAddAcc                    0      0.00%     79.23% # Class of executed instruction
system.cpu1.op_class::SimdAlu                       0      0.00%     79.23% # Class of executed instruction
system.cpu1.op_class::SimdCmp                       0      0.00%     79.23% # Class of executed instruction
system.cpu1.op_class::SimdCvt                       0      0.00%     79.23% # Class of executed instruction
system.cpu1.op_class::SimdMisc                      0      0.00%     79.23% # Class of executed instruction
system.cpu1.op_class::SimdMult                      0      0.00%     79.23% # Class of executed instruction
system.cpu1.op_class::SimdMultAcc                   0      0.00%     79.23% # Class of executed instruction
system.cpu1.op_class::SimdShift                     0      0.00%     79.23% # Class of executed instruction
system.cpu1.op_class::SimdShiftAcc                  0      0.00%     79.23% # Class of executed instruction
system.cpu1.op_class::SimdSqrt                      0      0.00%     79.23% # Class of executed instruction
system.cpu1.op_class::SimdFloatAdd                  0      0.00%     79.23% # Class of executed instruction
system.cpu1.op_class::SimdFloatAlu                  0      0.00%     79.23% # Class of executed instruction
system.cpu1.op_class::SimdFloatCmp                  0      0.00%     79.23% # Class of executed instruction
system.cpu1.op_class::SimdFloatCvt                  0      0.00%     79.23% # Class of executed instruction
system.cpu1.op_class::SimdFloatDiv                  0      0.00%     79.23% # Class of executed instruction
system.cpu1.op_class::SimdFloatMisc                 0      0.00%     79.23% # Class of executed instruction
system.cpu1.op_class::SimdFloatMult                 0      0.00%     79.23% # Class of executed instruction
system.cpu1.op_class::SimdFloatMultAcc              0      0.00%     79.23% # Class of executed instruction
system.cpu1.op_class::SimdFloatSqrt                 0      0.00%     79.23% # Class of executed instruction
system.cpu1.op_class::MemRead                 1000181     13.58%     92.82% # Class of executed instruction
system.cpu1.op_class::MemWrite                 528843      7.18%    100.00% # Class of executed instruction
system.cpu1.op_class::IprAccess                     0      0.00%    100.00% # Class of executed instruction
system.cpu1.op_class::InstPrefetch                  0      0.00%    100.00% # Class of executed instruction
system.cpu1.op_class::total                   7362940                       # Class of executed instruction
system.cpu2.apic_clk_domain.clock                8000                       # Clock period in ticks
system.cpu2.numCycles                      1628191386                       # number of cpu cycles simulated
system.cpu2.numWorkItemsStarted                     0                       # number of work items this cpu started
system.cpu2.numWorkItemsCompleted                   0                       # number of work items this cpu completed
system.cpu2.kern.inst.arm                           0                       # number of arm instructions executed
system.cpu2.kern.inst.quiesce                       0                       # number of quiesce instructions executed
system.cpu2.committedInsts                  269263011                       # Number of instructions committed
system.cpu2.committedOps                    442535354                       # Number of ops (including micro ops) committed
system.cpu2.num_int_alu_accesses            346509509                       # Number of integer alu accesses
system.cpu2.num_fp_alu_accesses             109594681                       # Number of float alu accesses
system.cpu2.num_func_calls                    5375166                       # number of times a function call or return occured
system.cpu2.num_conditional_control_insts     16411517                       # number of instructions that are conditional controls
system.cpu2.num_int_insts                   346509509                       # number of integer instructions
system.cpu2.num_fp_insts                    109594681                       # number of float instructions
system.cpu2.num_int_register_reads          737067468                       # number of times the integer registers were read
system.cpu2.num_int_register_writes         276038149                       # number of times the integer registers were written
system.cpu2.num_fp_register_reads           204618310                       # number of times the floating registers were read
system.cpu2.num_fp_register_writes          105641720                       # number of times the floating registers were written
system.cpu2.num_cc_register_reads           177406786                       # number of times the CC registers were read
system.cpu2.num_cc_register_writes          152763904                       # number of times the CC registers were written
system.cpu2.num_mem_refs                     92886269                       # number of memory refs
system.cpu2.num_load_insts                   73859671                       # Number of load instructions
system.cpu2.num_store_insts                  19026598                       # Number of store instructions
system.cpu2.num_idle_cycles              18787751.530282                       # Number of idle cycles
system.cpu2.num_busy_cycles              1609403634.469718                       # Number of busy cycles
system.cpu2.not_idle_fraction                0.988461                       # Percentage of non-idle cycles
system.cpu2.idle_fraction                    0.011539                       # Percentage of idle cycles
system.cpu2.Branches                         26482415                       # Number of branches fetched
system.cpu2.op_class::No_OpClass              3912734      0.88%      0.88% # Class of executed instruction
system.cpu2.op_class::IntAlu                254720170     57.56%     58.44% # Class of executed instruction
system.cpu2.op_class::IntMult                    2702      0.00%     58.44% # Class of executed instruction
system.cpu2.op_class::IntDiv                      448      0.00%     58.44% # Class of executed instruction
system.cpu2.op_class::FloatAdd               91015565     20.57%     79.01% # Class of executed instruction
system.cpu2.op_class::FloatCmp                      0      0.00%     79.01% # Class of executed instruction
system.cpu2.op_class::FloatCvt                      0      0.00%     79.01% # Class of executed instruction
system.cpu2.op_class::FloatMult                     0      0.00%     79.01% # Class of executed instruction
system.cpu2.op_class::FloatDiv                      0      0.00%     79.01% # Class of executed instruction
system.cpu2.op_class::FloatSqrt                     0      0.00%     79.01% # Class of executed instruction
system.cpu2.op_class::SimdAdd                       0      0.00%     79.01% # Class of executed instruction
system.cpu2.op_class::SimdAddAcc                    0      0.00%     79.01% # Class of executed instruction
system.cpu2.op_class::SimdAlu                       0      0.00%     79.01% # Class of executed instruction
system.cpu2.op_class::SimdCmp                       0      0.00%     79.01% # Class of executed instruction
system.cpu2.op_class::SimdCvt                       0      0.00%     79.01% # Class of executed instruction
system.cpu2.op_class::SimdMisc                      0      0.00%     79.01% # Class of executed instruction
system.cpu2.op_class::SimdMult                      0      0.00%     79.01% # Class of executed instruction
system.cpu2.op_class::SimdMultAcc                   0      0.00%     79.01% # Class of executed instruction
system.cpu2.op_class::SimdShift                     0      0.00%     79.01% # Class of executed instruction
system.cpu2.op_class::SimdShiftAcc                  0      0.00%     79.01% # Class of executed instruction
system.cpu2.op_class::SimdSqrt                      0      0.00%     79.01% # Class of executed instruction
system.cpu2.op_class::SimdFloatAdd                  0      0.00%     79.01% # Class of executed instruction
system.cpu2.op_class::SimdFloatAlu                  0      0.00%     79.01% # Class of executed instruction
system.cpu2.op_class::SimdFloatCmp                  0      0.00%     79.01% # Class of executed instruction
system.cpu2.op_class::SimdFloatCvt                  0      0.00%     79.01% # Class of executed instruction
system.cpu2.op_class::SimdFloatDiv                  0      0.00%     79.01% # Class of executed instruction
system.cpu2.op_class::SimdFloatMisc                 0      0.00%     79.01% # Class of executed instruction
system.cpu2.op_class::SimdFloatMult                 0      0.00%     79.01% # Class of executed instruction
system.cpu2.op_class::SimdFloatMultAcc              0      0.00%     79.01% # Class of executed instruction
system.cpu2.op_class::SimdFloatSqrt                 0      0.00%     79.01% # Class of executed instruction
system.cpu2.op_class::MemRead                73859671     16.69%     95.70% # Class of executed instruction
system.cpu2.op_class::MemWrite               19026598      4.30%    100.00% # Class of executed instruction
system.cpu2.op_class::IprAccess                     0      0.00%    100.00% # Class of executed instruction
system.cpu2.op_class::InstPrefetch                  0      0.00%    100.00% # Class of executed instruction
system.cpu2.op_class::total                 442537888                       # Class of executed instruction
system.cpu3.apic_clk_domain.clock                8000                       # Clock period in ticks
system.cpu3.numCycles                      1631486074                       # number of cpu cycles simulated
system.cpu3.numWorkItemsStarted                     0                       # number of work items this cpu started
system.cpu3.numWorkItemsCompleted                   0                       # number of work items this cpu completed
system.cpu3.kern.inst.arm                           0                       # number of arm instructions executed
system.cpu3.kern.inst.quiesce                       0                       # number of quiesce instructions executed
system.cpu3.committedInsts                    2199976                       # Number of instructions committed
system.cpu3.committedOps                      4415432                       # Number of ops (including micro ops) committed
system.cpu3.num_int_alu_accesses              4302367                       # Number of integer alu accesses
system.cpu3.num_fp_alu_accesses                   372                       # Number of float alu accesses
system.cpu3.num_func_calls                      91332                       # number of times a function call or return occured
system.cpu3.num_conditional_control_insts       384670                       # number of instructions that are conditional controls
system.cpu3.num_int_insts                     4302367                       # number of integer instructions
system.cpu3.num_fp_insts                          372                       # number of float instructions
system.cpu3.num_int_register_reads            8285781                       # number of times the integer registers were read
system.cpu3.num_int_register_writes           3519084                       # number of times the integer registers were written
system.cpu3.num_fp_register_reads                 596                       # number of times the floating registers were read
system.cpu3.num_fp_register_writes                261                       # number of times the floating registers were written
system.cpu3.num_cc_register_reads             2817702                       # number of times the CC registers were read
system.cpu3.num_cc_register_writes            1689318                       # number of times the CC registers were written
system.cpu3.num_mem_refs                       858859                       # number of memory refs
system.cpu3.num_load_insts                     531350                       # Number of load instructions
system.cpu3.num_store_insts                    327509                       # Number of store instructions
system.cpu3.num_idle_cycles              1618897479.433434                       # Number of idle cycles
system.cpu3.num_busy_cycles              12588594.566567                       # Number of busy cycles
system.cpu3.not_idle_fraction                0.007716                       # Percentage of non-idle cycles
system.cpu3.idle_fraction                    0.992284                       # Percentage of idle cycles
system.cpu3.Branches                           508002                       # Number of branches fetched
system.cpu3.op_class::No_OpClass                34482      0.78%      0.78% # Class of executed instruction
system.cpu3.op_class::IntAlu                  3507492     79.44%     80.22% # Class of executed instruction
system.cpu3.op_class::IntMult                    4041      0.09%     80.31% # Class of executed instruction
system.cpu3.op_class::IntDiv                    10402      0.24%     80.54% # Class of executed instruction
system.cpu3.op_class::FloatAdd                    244      0.01%     80.55% # Class of executed instruction
system.cpu3.op_class::FloatCmp                      0      0.00%     80.55% # Class of executed instruction
system.cpu3.op_class::FloatCvt                      0      0.00%     80.55% # Class of executed instruction
system.cpu3.op_class::FloatMult                     0      0.00%     80.55% # Class of executed instruction
system.cpu3.op_class::FloatDiv                      0      0.00%     80.55% # Class of executed instruction
system.cpu3.op_class::FloatSqrt                     0      0.00%     80.55% # Class of executed instruction
system.cpu3.op_class::SimdAdd                       0      0.00%     80.55% # Class of executed instruction
system.cpu3.op_class::SimdAddAcc                    0      0.00%     80.55% # Class of executed instruction
system.cpu3.op_class::SimdAlu                       0      0.00%     80.55% # Class of executed instruction
system.cpu3.op_class::SimdCmp                       0      0.00%     80.55% # Class of executed instruction
system.cpu3.op_class::SimdCvt                       0      0.00%     80.55% # Class of executed instruction
system.cpu3.op_class::SimdMisc                      0      0.00%     80.55% # Class of executed instruction
system.cpu3.op_class::SimdMult                      0      0.00%     80.55% # Class of executed instruction
system.cpu3.op_class::SimdMultAcc                   0      0.00%     80.55% # Class of executed instruction
system.cpu3.op_class::SimdShift                     0      0.00%     80.55% # Class of executed instruction
system.cpu3.op_class::SimdShiftAcc                  0      0.00%     80.55% # Class of executed instruction
system.cpu3.op_class::SimdSqrt                      0      0.00%     80.55% # Class of executed instruction
system.cpu3.op_class::SimdFloatAdd                  0      0.00%     80.55% # Class of executed instruction
system.cpu3.op_class::SimdFloatAlu                  0      0.00%     80.55% # Class of executed instruction
system.cpu3.op_class::SimdFloatCmp                  0      0.00%     80.55% # Class of executed instruction
system.cpu3.op_class::SimdFloatCvt                  0      0.00%     80.55% # Class of executed instruction
system.cpu3.op_class::SimdFloatDiv                  0      0.00%     80.55% # Class of executed instruction
system.cpu3.op_class::SimdFloatMisc                 0      0.00%     80.55% # Class of executed instruction
system.cpu3.op_class::SimdFloatMult                 0      0.00%     80.55% # Class of executed instruction
system.cpu3.op_class::SimdFloatMultAcc              0      0.00%     80.55% # Class of executed instruction
system.cpu3.op_class::SimdFloatSqrt                 0      0.00%     80.55% # Class of executed instruction
system.cpu3.op_class::MemRead                  531350     12.03%     92.58% # Class of executed instruction
system.cpu3.op_class::MemWrite                 327509      7.42%    100.00% # Class of executed instruction
system.cpu3.op_class::IprAccess                     0      0.00%    100.00% # Class of executed instruction
system.cpu3.op_class::InstPrefetch                  0      0.00%    100.00% # Class of executed instruction
system.cpu3.op_class::total                   4415520                       # Class of executed instruction
system.iobus.trans_dist::ReadReq                  557                       # Transaction distribution
system.iobus.trans_dist::ReadResp                 557                       # Transaction distribution
system.iobus.trans_dist::WriteReq                1833                       # Transaction distribution
system.iobus.trans_dist::WriteResp               1833                       # Transaction distribution
system.iobus.trans_dist::MessageReq                77                       # Transaction distribution
system.iobus.trans_dist::MessageResp               77                       # Transaction distribution
system.iobus.pkt_count_system.pc.south_bridge.io_apic.int_master::system.ruby.l0_cntrl0.sequencer.pio-slave-port           30                       # Packet count per connected master and slave (bytes)
system.iobus.pkt_count_system.pc.south_bridge.io_apic.int_master::system.ruby.l0_cntrl1.sequencer.pio-slave-port           32                       # Packet count per connected master and slave (bytes)
system.iobus.pkt_count_system.pc.south_bridge.io_apic.int_master::system.ruby.l0_cntrl2.sequencer.pio-slave-port           32                       # Packet count per connected master and slave (bytes)
system.iobus.pkt_count_system.pc.south_bridge.io_apic.int_master::system.ruby.l0_cntrl3.sequencer.pio-slave-port           32                       # Packet count per connected master and slave (bytes)
system.iobus.pkt_count_system.pc.south_bridge.io_apic.int_master::total          126                       # Packet count per connected master and slave (bytes)
system.iobus.pkt_count_system.ruby.l0_cntrl0.sequencer.mem-master-port::system.pc.south_bridge.ide.pio          644                       # Packet count per connected master and slave (bytes)
system.iobus.pkt_count_system.ruby.l0_cntrl0.sequencer.mem-master-port::system.pc.south_bridge.io_apic.pio            6                       # Packet count per connected master and slave (bytes)
system.iobus.pkt_count_system.ruby.l0_cntrl0.sequencer.mem-master-port::system.pc.com_1.pio          174                       # Packet count per connected master and slave (bytes)
system.iobus.pkt_count_system.ruby.l0_cntrl0.sequencer.mem-master-port::system.ruby.l0_cntrl0.sequencer.pio-slave-port          458                       # Packet count per connected master and slave (bytes)
system.iobus.pkt_count_system.ruby.l0_cntrl0.sequencer.mem-master-port::system.ruby.l0_cntrl1.sequencer.pio-slave-port            2                       # Packet count per connected master and slave (bytes)
system.iobus.pkt_count_system.ruby.l0_cntrl0.sequencer.mem-master-port::system.ruby.l0_cntrl3.sequencer.pio-slave-port            2                       # Packet count per connected master and slave (bytes)
system.iobus.pkt_count_system.ruby.l0_cntrl0.sequencer.mem-master-port::total         1286                       # Packet count per connected master and slave (bytes)
system.iobus.pkt_count_system.ruby.l0_cntrl1.sequencer.mem-master-port::system.pc.south_bridge.ide.pio          860                       # Packet count per connected master and slave (bytes)
system.iobus.pkt_count_system.ruby.l0_cntrl1.sequencer.mem-master-port::system.pc.south_bridge.io_apic.pio            8                       # Packet count per connected master and slave (bytes)
system.iobus.pkt_count_system.ruby.l0_cntrl1.sequencer.mem-master-port::system.pc.com_1.pio            2                       # Packet count per connected master and slave (bytes)
system.iobus.pkt_count_system.ruby.l0_cntrl1.sequencer.mem-master-port::system.ruby.l0_cntrl0.sequencer.pio-slave-port            2                       # Packet count per connected master and slave (bytes)
system.iobus.pkt_count_system.ruby.l0_cntrl1.sequencer.mem-master-port::system.ruby.l0_cntrl1.sequencer.pio-slave-port          462                       # Packet count per connected master and slave (bytes)
system.iobus.pkt_count_system.ruby.l0_cntrl1.sequencer.mem-master-port::system.ruby.l0_cntrl2.sequencer.pio-slave-port            2                       # Packet count per connected master and slave (bytes)
system.iobus.pkt_count_system.ruby.l0_cntrl1.sequencer.mem-master-port::system.ruby.l0_cntrl3.sequencer.pio-slave-port            2                       # Packet count per connected master and slave (bytes)
system.iobus.pkt_count_system.ruby.l0_cntrl1.sequencer.mem-master-port::total         1338                       # Packet count per connected master and slave (bytes)
system.iobus.pkt_count_system.ruby.l0_cntrl2.sequencer.mem-master-port::system.pc.south_bridge.ide.pio          554                       # Packet count per connected master and slave (bytes)
system.iobus.pkt_count_system.ruby.l0_cntrl2.sequencer.mem-master-port::system.pc.south_bridge.io_apic.pio            8                       # Packet count per connected master and slave (bytes)
system.iobus.pkt_count_system.ruby.l0_cntrl2.sequencer.mem-master-port::system.ruby.l0_cntrl0.sequencer.pio-slave-port            2                       # Packet count per connected master and slave (bytes)
system.iobus.pkt_count_system.ruby.l0_cntrl2.sequencer.mem-master-port::system.ruby.l0_cntrl1.sequencer.pio-slave-port            2                       # Packet count per connected master and slave (bytes)
system.iobus.pkt_count_system.ruby.l0_cntrl2.sequencer.mem-master-port::system.ruby.l0_cntrl2.sequencer.pio-slave-port          462                       # Packet count per connected master and slave (bytes)
system.iobus.pkt_count_system.ruby.l0_cntrl2.sequencer.mem-master-port::system.ruby.l0_cntrl3.sequencer.pio-slave-port            4                       # Packet count per connected master and slave (bytes)
system.iobus.pkt_count_system.ruby.l0_cntrl2.sequencer.mem-master-port::total         1032                       # Packet count per connected master and slave (bytes)
system.iobus.pkt_count_system.ruby.l0_cntrl3.sequencer.mem-master-port::system.pc.south_bridge.ide.pio          656                       # Packet count per connected master and slave (bytes)
system.iobus.pkt_count_system.ruby.l0_cntrl3.sequencer.mem-master-port::system.pc.south_bridge.io_apic.pio            8                       # Packet count per connected master and slave (bytes)
system.iobus.pkt_count_system.ruby.l0_cntrl3.sequencer.mem-master-port::system.ruby.l0_cntrl0.sequencer.pio-slave-port            4                       # Packet count per connected master and slave (bytes)
system.iobus.pkt_count_system.ruby.l0_cntrl3.sequencer.mem-master-port::system.ruby.l0_cntrl1.sequencer.pio-slave-port            2                       # Packet count per connected master and slave (bytes)
system.iobus.pkt_count_system.ruby.l0_cntrl3.sequencer.mem-master-port::system.ruby.l0_cntrl2.sequencer.pio-slave-port            4                       # Packet count per connected master and slave (bytes)
system.iobus.pkt_count_system.ruby.l0_cntrl3.sequencer.mem-master-port::system.ruby.l0_cntrl3.sequencer.pio-slave-port          478                       # Packet count per connected master and slave (bytes)
system.iobus.pkt_count_system.ruby.l0_cntrl3.sequencer.mem-master-port::total         1152                       # Packet count per connected master and slave (bytes)
system.iobus.pkt_count::total                    4934                       # Packet count per connected master and slave (bytes)
system.iobus.pkt_size_system.pc.south_bridge.io_apic.int_master::system.ruby.l0_cntrl0.sequencer.pio-slave-port           60                       # Cumulative packet size per connected master and slave (bytes)
system.iobus.pkt_size_system.pc.south_bridge.io_apic.int_master::system.ruby.l0_cntrl1.sequencer.pio-slave-port           64                       # Cumulative packet size per connected master and slave (bytes)
system.iobus.pkt_size_system.pc.south_bridge.io_apic.int_master::system.ruby.l0_cntrl2.sequencer.pio-slave-port           64                       # Cumulative packet size per connected master and slave (bytes)
system.iobus.pkt_size_system.pc.south_bridge.io_apic.int_master::system.ruby.l0_cntrl3.sequencer.pio-slave-port           64                       # Cumulative packet size per connected master and slave (bytes)
system.iobus.pkt_size_system.pc.south_bridge.io_apic.int_master::total          252                       # Cumulative packet size per connected master and slave (bytes)
system.iobus.pkt_size_system.ruby.l0_cntrl0.sequencer.mem-master-port::system.pc.south_bridge.ide.pio          364                       # Cumulative packet size per connected master and slave (bytes)
system.iobus.pkt_size_system.ruby.l0_cntrl0.sequencer.mem-master-port::system.pc.south_bridge.io_apic.pio           12                       # Cumulative packet size per connected master and slave (bytes)
system.iobus.pkt_size_system.ruby.l0_cntrl0.sequencer.mem-master-port::system.pc.com_1.pio           87                       # Cumulative packet size per connected master and slave (bytes)
system.iobus.pkt_size_system.ruby.l0_cntrl0.sequencer.mem-master-port::system.ruby.l0_cntrl0.sequencer.pio-slave-port          916                       # Cumulative packet size per connected master and slave (bytes)
system.iobus.pkt_size_system.ruby.l0_cntrl0.sequencer.mem-master-port::system.ruby.l0_cntrl1.sequencer.pio-slave-port            4                       # Cumulative packet size per connected master and slave (bytes)
system.iobus.pkt_size_system.ruby.l0_cntrl0.sequencer.mem-master-port::system.ruby.l0_cntrl3.sequencer.pio-slave-port            4                       # Cumulative packet size per connected master and slave (bytes)
system.iobus.pkt_size_system.ruby.l0_cntrl0.sequencer.mem-master-port::total         1387                       # Cumulative packet size per connected master and slave (bytes)
system.iobus.pkt_size_system.ruby.l0_cntrl1.sequencer.mem-master-port::system.pc.south_bridge.ide.pio          490                       # Cumulative packet size per connected master and slave (bytes)
system.iobus.pkt_size_system.ruby.l0_cntrl1.sequencer.mem-master-port::system.pc.south_bridge.io_apic.pio           16                       # Cumulative packet size per connected master and slave (bytes)
system.iobus.pkt_size_system.ruby.l0_cntrl1.sequencer.mem-master-port::system.pc.com_1.pio            1                       # Cumulative packet size per connected master and slave (bytes)
system.iobus.pkt_size_system.ruby.l0_cntrl1.sequencer.mem-master-port::system.ruby.l0_cntrl0.sequencer.pio-slave-port            4                       # Cumulative packet size per connected master and slave (bytes)
system.iobus.pkt_size_system.ruby.l0_cntrl1.sequencer.mem-master-port::system.ruby.l0_cntrl1.sequencer.pio-slave-port          924                       # Cumulative packet size per connected master and slave (bytes)
system.iobus.pkt_size_system.ruby.l0_cntrl1.sequencer.mem-master-port::system.ruby.l0_cntrl2.sequencer.pio-slave-port            4                       # Cumulative packet size per connected master and slave (bytes)
system.iobus.pkt_size_system.ruby.l0_cntrl1.sequencer.mem-master-port::system.ruby.l0_cntrl3.sequencer.pio-slave-port            4                       # Cumulative packet size per connected master and slave (bytes)
system.iobus.pkt_size_system.ruby.l0_cntrl1.sequencer.mem-master-port::total         1443                       # Cumulative packet size per connected master and slave (bytes)
system.iobus.pkt_size_system.ruby.l0_cntrl2.sequencer.mem-master-port::system.pc.south_bridge.ide.pio          310                       # Cumulative packet size per connected master and slave (bytes)
system.iobus.pkt_size_system.ruby.l0_cntrl2.sequencer.mem-master-port::system.pc.south_bridge.io_apic.pio           16                       # Cumulative packet size per connected master and slave (bytes)
system.iobus.pkt_size_system.ruby.l0_cntrl2.sequencer.mem-master-port::system.ruby.l0_cntrl0.sequencer.pio-slave-port            4                       # Cumulative packet size per connected master and slave (bytes)
system.iobus.pkt_size_system.ruby.l0_cntrl2.sequencer.mem-master-port::system.ruby.l0_cntrl1.sequencer.pio-slave-port            4                       # Cumulative packet size per connected master and slave (bytes)
system.iobus.pkt_size_system.ruby.l0_cntrl2.sequencer.mem-master-port::system.ruby.l0_cntrl2.sequencer.pio-slave-port          924                       # Cumulative packet size per connected master and slave (bytes)
system.iobus.pkt_size_system.ruby.l0_cntrl2.sequencer.mem-master-port::system.ruby.l0_cntrl3.sequencer.pio-slave-port            8                       # Cumulative packet size per connected master and slave (bytes)
system.iobus.pkt_size_system.ruby.l0_cntrl2.sequencer.mem-master-port::total         1266                       # Cumulative packet size per connected master and slave (bytes)
system.iobus.pkt_size_system.ruby.l0_cntrl3.sequencer.mem-master-port::system.pc.south_bridge.ide.pio          370                       # Cumulative packet size per connected master and slave (bytes)
system.iobus.pkt_size_system.ruby.l0_cntrl3.sequencer.mem-master-port::system.pc.south_bridge.io_apic.pio           16                       # Cumulative packet size per connected master and slave (bytes)
system.iobus.pkt_size_system.ruby.l0_cntrl3.sequencer.mem-master-port::system.ruby.l0_cntrl0.sequencer.pio-slave-port            8                       # Cumulative packet size per connected master and slave (bytes)
system.iobus.pkt_size_system.ruby.l0_cntrl3.sequencer.mem-master-port::system.ruby.l0_cntrl1.sequencer.pio-slave-port            4                       # Cumulative packet size per connected master and slave (bytes)
system.iobus.pkt_size_system.ruby.l0_cntrl3.sequencer.mem-master-port::system.ruby.l0_cntrl2.sequencer.pio-slave-port            8                       # Cumulative packet size per connected master and slave (bytes)
system.iobus.pkt_size_system.ruby.l0_cntrl3.sequencer.mem-master-port::system.ruby.l0_cntrl3.sequencer.pio-slave-port          956                       # Cumulative packet size per connected master and slave (bytes)
system.iobus.pkt_size_system.ruby.l0_cntrl3.sequencer.mem-master-port::total         1362                       # Cumulative packet size per connected master and slave (bytes)
system.iobus.pkt_size::total                     5710                       # Cumulative packet size per connected master and slave (bytes)
system.iobus.reqLayer2.occupancy              2371500                       # Layer occupancy (ticks)
system.iobus.reqLayer2.utilization                0.0                       # Layer utilization (%)
system.iobus.reqLayer8.occupancy                27496                       # Layer occupancy (ticks)
system.iobus.reqLayer8.utilization                0.0                       # Layer utilization (%)
system.iobus.reqLayer12.occupancy              113000                       # Layer occupancy (ticks)
system.iobus.reqLayer12.utilization               0.0                       # Layer utilization (%)
system.iobus.reqLayer17.occupancy              566984                       # Layer occupancy (ticks)
system.iobus.reqLayer17.utilization               0.0                       # Layer utilization (%)
system.iobus.reqLayer18.occupancy              569982                       # Layer occupancy (ticks)
system.iobus.reqLayer18.utilization               0.0                       # Layer utilization (%)
system.iobus.reqLayer19.occupancy              675769                       # Layer occupancy (ticks)
system.iobus.reqLayer19.utilization               0.0                       # Layer utilization (%)
system.iobus.reqLayer20.occupancy              581484                       # Layer occupancy (ticks)
system.iobus.reqLayer20.utilization               0.0                       # Layer utilization (%)
system.iobus.respLayer0.occupancy              108941                       # Layer occupancy (ticks)
system.iobus.respLayer0.utilization               0.0                       # Layer utilization (%)
system.iobus.respLayer2.occupancy              937500                       # Layer occupancy (ticks)
system.iobus.respLayer2.utilization               0.0                       # Layer utilization (%)
system.iobus.respLayer4.occupancy              929500                       # Layer occupancy (ticks)
system.iobus.respLayer4.utilization               0.0                       # Layer utilization (%)
system.iobus.respLayer6.occupancy              741000                       # Layer occupancy (ticks)
system.iobus.respLayer6.utilization               0.0                       # Layer utilization (%)
system.iobus.respLayer8.occupancy              819000                       # Layer occupancy (ticks)
system.iobus.respLayer8.utilization               0.0                       # Layer utilization (%)
system.pc.south_bridge.ide.disks.dma_read_full_pages          886                       # Number of full page size DMA reads (not PRD).
system.pc.south_bridge.ide.disks.dma_read_bytes      3629056                       # Number of bytes transfered via DMA reads (not PRD).
system.pc.south_bridge.ide.disks.dma_read_txs          886                       # Number of DMA read transactions (not PRD).
system.pc.south_bridge.ide.disks.dma_write_full_pages           37                       # Number of full page size DMA writes.
system.pc.south_bridge.ide.disks.dma_write_bytes       151552                       # Number of bytes transfered via DMA writes.
system.pc.south_bridge.ide.disks.dma_write_txs           37                       # Number of DMA write transactions.
system.ruby.clk_domain.clock                      500                       # Clock period in ticks
system.ruby.delayHist::bucket_size                  4                       # delay histogram for all message
system.ruby.delayHist::max_bucket                  39                       # delay histogram for all message
system.ruby.delayHist::samples               81986981                       # delay histogram for all message
system.ruby.delayHist::mean                  0.260307                       # delay histogram for all message
system.ruby.delayHist::stdev                 1.419683                       # delay histogram for all message
system.ruby.delayHist                    |    79321127     96.75%     96.75% |        6137      0.01%     96.76% |     2658456      3.24%    100.00% |         346      0.00%    100.00% |         877      0.00%    100.00% |          11      0.00%    100.00% |          25      0.00%    100.00% |           2      0.00%    100.00% |           0      0.00%    100.00% |           0      0.00%    100.00% # delay histogram for all message
system.ruby.delayHist::total                 81986981                       # delay histogram for all message
system.ruby.outstanding_req_hist_seqr::bucket_size            1                      
system.ruby.outstanding_req_hist_seqr::max_bucket            9                      
[...]
system.ruby.L1Cache_Controller.L0_Ack::total       858040                      
system.ruby.L1Cache_Controller.Ack       |        6744     47.81%     47.81% |        2840     20.13%     67.94% |        2033     14.41%     82.35% |        2490     17.65%    100.00%
system.ruby.L1Cache_Controller.Ack::total        14107                      
system.ruby.L1Cache_Controller.Ack_all   |        3382     35.44%     35.44% |        2273     23.82%     59.26% |        1723     18.06%     77.31% |        2165     22.69%    100.00%
system.ruby.L1Cache_Controller.Ack_all::total         9543                      
system.ruby.L1Cache_Controller.WB_Ack    |       47040      0.32%      0.32% |     6030922     41.38%     41.70% |     8404689     57.66%     99.36% |       93493      0.64%    100.00%
system.ruby.L1Cache_Controller.WB_Ack::total     14576144                      
system.ruby.L1Cache_Controller.I.Load    |       79895      0.71%      0.71% |     4772376     42.64%     43.35% |     6211509     55.50%     98.85% |      129106      1.15%    100.00%
system.ruby.L1Cache_Controller.I.Load::total     11192886                      
system.ruby.L1Cache_Controller.I.Store   |       19595      0.52%      0.52% |     1356388     35.75%     36.26% |     2392732     63.06%     99.32% |       25746      0.68%    100.00%
system.ruby.L1Cache_Controller.I.Store::total      3794461                      
system.ruby.L1Cache_Controller.I.Inv     |        2647     16.15%     16.15% |        5640     34.42%     50.57% |        4362     26.62%     77.18% |        3739     22.82%    100.00%
system.ruby.L1Cache_Controller.I.Inv::total        16388                      
system.ruby.L1Cache_Controller.S.Load    |      131950      1.58%      1.58% |     3860895     46.36%     47.95% |     4205802     50.50%     98.45% |      129233      1.55%    100.00%
system.ruby.L1Cache_Controller.S.Load::total      8327880                      
system.ruby.L1Cache_Controller.S.Store   |        2390     31.85%     31.85% |        1860     24.78%     56.63% |        1536     20.47%     77.10% |        1719     22.90%    100.00%
system.ruby.L1Cache_Controller.S.Store::total         7505                      
system.ruby.L1Cache_Controller.S.L0_Invalidate_Own |       28100      8.21%      8.21% |       84679     24.76%     32.97% |      189307     55.34%     88.31% |       39977     11.69%    100.00%
system.ruby.L1Cache_Controller.S.L0_Invalidate_Own::total       342063                      
system.ruby.L1Cache_Controller.S.L0_Invalidate_Else |        7798     30.34%     30.34% |        4845     18.85%     49.19% |        4302     16.74%     65.93% |        8758     34.07%    100.00%
system.ruby.L1Cache_Controller.S.L0_Invalidate_Else::total        25703                      
system.ruby.L1Cache_Controller.SS.Load   |        3266     35.25%     35.25% |        1919     20.71%     55.96% |        2639     28.48%     84.44% |        1442     15.56%    100.00%
system.ruby.L1Cache_Controller.SS.Load::total         9266                      
system.ruby.L1Cache_Controller.SS.Store  |         638     78.47%     78.47% |          21      2.58%     81.06% |          60      7.38%     88.44% |          94     11.56%    100.00%
system.ruby.L1Cache_Controller.SS.Store::total          813                      
system.ruby.L1Cache_Controller.SS.Inv    |       10072     30.81%     30.81% |        6384     19.53%     50.34% |        5493     16.80%     67.14% |       10742     32.86%    100.00%
system.ruby.L1Cache_Controller.SS.Inv::total        32691                      
system.ruby.L1Cache_Controller.SS.L1_Replacement |       29102      8.40%      8.40% |       85795     24.76%     33.16% |      190444     54.96%     88.11% |       41203     11.89%    100.00%
system.ruby.L1Cache_Controller.SS.L1_Replacement::total       346544                      
system.ruby.L1Cache_Controller.E.WriteBack |       42371      0.41%      0.41% |     4601713     44.04%     44.45% |     5727474     54.82%     99.26% |       76998      0.74%    100.00%
system.ruby.L1Cache_Controller.E.WriteBack::total     10448556                      
system.ruby.L1Cache_Controller.E.L0_Invalidate_Own |         493      0.13%      0.13% |       79936     21.53%     21.66% |      289551     77.98%     99.64% |        1351      0.36%    100.00%
system.ruby.L1Cache_Controller.E.L0_Invalidate_Own::total       371331                      
system.ruby.L1Cache_Controller.E.L0_Invalidate_Else |        1909     28.76%     28.76% |        1264     19.04%     47.80% |        1803     27.16%     74.96% |        1662     25.04%    100.00%
system.ruby.L1Cache_Controller.E.L0_Invalidate_Else::total         6638                      
system.ruby.L1Cache_Controller.EE.Inv    |         767     32.19%     32.19% |         259     10.87%     43.05% |         457     19.18%     62.23% |         900     37.77%    100.00%
system.ruby.L1Cache_Controller.EE.Inv::total         2383                      
system.ruby.L1Cache_Controller.EE.L1_Replacement |         445      0.12%      0.12% |       79294     21.41%     21.53% |      289498     78.16%     99.69% |        1150      0.31%    100.00%
system.ruby.L1Cache_Controller.EE.L1_Replacement::total       370387                      
system.ruby.L1Cache_Controller.EE.Fwd_GETX |           6     50.00%     50.00% |           3     25.00%     75.00% |           1      8.33%     83.33% |           2     16.67%    100.00%
system.ruby.L1Cache_Controller.EE.Fwd_GETX::total           12                      
system.ruby.L1Cache_Controller.EE.Fwd_GETS |        1026     29.36%     29.36% |         849     24.30%     53.66% |        1199     34.32%     87.98% |         420     12.02%    100.00%
system.ruby.L1Cache_Controller.EE.Fwd_GETS::total         3494                      
system.ruby.L1Cache_Controller.M.WriteBack |      146690      0.48%      0.48% |     8465453     27.79%     28.27% |    21665403     71.12%     99.39% |      184759      0.61%    100.00%
system.ruby.L1Cache_Controller.M.WriteBack::total     30462305                      
system.ruby.L1Cache_Controller.M.L0_Invalidate_Own |        2056      1.39%      1.39% |       20296     13.73%     15.13% |      122276     82.74%     97.87% |        3152      2.13%    100.00%
system.ruby.L1Cache_Controller.M.L0_Invalidate_Own::total       147780                      
system.ruby.L1Cache_Controller.M.L0_Invalidate_Else |        4903     38.62%     38.62% |        2279     17.95%     56.56% |        1676     13.20%     69.76% |        3839     30.24%    100.00%
system.ruby.L1Cache_Controller.M.L0_Invalidate_Else::total        12697                      
system.ruby.L1Cache_Controller.MM.Load   |      107129      0.44%      0.44% |     6755707     27.58%     28.01% |    17516425     71.50%     99.51% |      119720      0.49%    100.00%
system.ruby.L1Cache_Controller.MM.Load::total     24498981                      
system.ruby.L1Cache_Controller.MM.Store  |       23894      1.03%      1.03% |      374049     16.12%     17.15% |     1878600     80.94%     98.08% |       44474      1.92%    100.00%
system.ruby.L1Cache_Controller.MM.Store::total      2321017                      
system.ruby.L1Cache_Controller.MM.Inv    |       11326     42.80%     42.80% |        4800     18.14%     60.94% |        2736     10.34%     71.27% |        7602     28.73%    100.00%
system.ruby.L1Cache_Controller.MM.Inv::total        26464                      
system.ruby.L1Cache_Controller.MM.L1_Replacement |       46595      0.33%      0.33% |     5951628     41.90%     42.22% |     8115191     57.13%     99.35% |       92343      0.65%    100.00%
system.ruby.L1Cache_Controller.MM.L1_Replacement::total     14205757                      
system.ruby.L1Cache_Controller.MM.Fwd_GETX |        1143     37.71%     37.71% |         601     19.83%     57.54% |         342     11.28%     68.82% |         945     31.18%    100.00%
system.ruby.L1Cache_Controller.MM.Fwd_GETX::total         3031                      
system.ruby.L1Cache_Controller.MM.Fwd_GETS |        6109     34.28%     34.28% |        3746     21.02%     55.30% |        3715     20.85%     76.15% |        4250     23.85%    100.00%
system.ruby.L1Cache_Controller.MM.Fwd_GETS::total        17820                      
system.ruby.L1Cache_Controller.IS.Data_Exclusive |       44777      0.41%      0.41% |     4682904     43.25%     43.67% |     6018827     55.59%     99.26% |       80011      0.74%    100.00%
system.ruby.L1Cache_Controller.IS.Data_Exclusive::total     10826519                      
system.ruby.L1Cache_Controller.IS.DataS_fromL1 |        7213     33.84%     33.84% |        4773     22.39%     56.23% |        2939     13.79%     70.02% |        6390     29.98%    100.00%
system.ruby.L1Cache_Controller.IS.DataS_fromL1::total        21315                      
system.ruby.L1Cache_Controller.IS.Data_all_Acks |       27905      8.09%      8.09% |       84699     24.55%     32.63% |      189743     54.99%     87.62% |       42705     12.38%    100.00%
system.ruby.L1Cache_Controller.IS.Data_all_Acks::total       345052                      
system.ruby.L1Cache_Controller.IM.Data   |         354     28.90%     28.90% |         392     32.00%     60.90% |         127     10.37%     71.27% |         352     28.73%    100.00%
system.ruby.L1Cache_Controller.IM.Data::total         1225                      
system.ruby.L1Cache_Controller.IM.Data_all_Acks |       19241      0.51%      0.51% |     1355996     35.75%     36.25% |     2392605     63.08%     99.33% |       25394      0.67%    100.00%
system.ruby.L1Cache_Controller.IM.Data_all_Acks::total      3793236                      
system.ruby.L1Cache_Controller.SM.Ack    |        6744     47.81%     47.81% |        2840     20.13%     67.94% |        2033     14.41%     82.35% |        2490     17.65%    100.00%
system.ruby.L1Cache_Controller.SM.Ack::total        14107                      
system.ruby.L1Cache_Controller.SM.Ack_all |        3382     35.44%     35.44% |        2273     23.82%     59.26% |        1723     18.06%     77.31% |        2165     22.69%    100.00%
system.ruby.L1Cache_Controller.SM.Ack_all::total         9543                      
system.ruby.L1Cache_Controller.M_I.Fwd_GETS |           0      0.00%      0.00% |           1    100.00%    100.00% |           0      0.00%    100.00% |           0      0.00%    100.00%
system.ruby.L1Cache_Controller.M_I.Fwd_GETS::total            1                      
system.ruby.L1Cache_Controller.M_I.WB_Ack |       47040      0.32%      0.32% |     6030921     41.38%     41.70% |     8404689     57.66%     99.36% |       93493      0.64%    100.00%
system.ruby.L1Cache_Controller.M_I.WB_Ack::total     14576143                      
system.ruby.L1Cache_Controller.SINK_WB_ACK.WB_Ack |           0      0.00%      0.00% |           1    100.00%    100.00% |           0      0.00%    100.00% |           0      0.00%    100.00%
system.ruby.L1Cache_Controller.SINK_WB_ACK.WB_Ack::total            1                      
system.ruby.L1Cache_Controller.S_IL0.Load |           1    100.00%    100.00% |           0      0.00%    100.00% |           0      0.00%    100.00% |           0      0.00%    100.00%
system.ruby.L1Cache_Controller.S_IL0.Load::total            1                      
system.ruby.L1Cache_Controller.S_IL0.L0_Invalidate_Own |       28100      8.21%      8.21% |       84679     24.76%     32.97% |      189307     55.34%     88.31% |       39977     11.69%    100.00%
system.ruby.L1Cache_Controller.S_IL0.L0_Invalidate_Own::total       342063                      
system.ruby.L1Cache_Controller.S_IL0.L0_Invalidate_Else |        7798     30.34%     30.34% |        4845     18.85%     49.19% |        4302     16.74%     65.93% |        8758     34.07%    100.00%
system.ruby.L1Cache_Controller.S_IL0.L0_Invalidate_Else::total        25703                      
system.ruby.L1Cache_Controller.S_IL0.L0_Ack |       35898      9.76%      9.76% |       89524     24.34%     34.10% |      193609     52.64%     86.75% |       48735     13.25%    100.00%
system.ruby.L1Cache_Controller.S_IL0.L0_Ack::total       367766                      
system.ruby.L1Cache_Controller.E_IL0.L0_DataAck |         158      9.33%      9.33% |         795     46.96%     56.29% |         199     11.75%     68.04% |         541     31.96%    100.00%
system.ruby.L1Cache_Controller.E_IL0.L0_DataAck::total         1693                      
system.ruby.L1Cache_Controller.E_IL0.L0_Invalidate_Own |         493      0.13%      0.13% |       79936     21.53%     21.66% |      289551     77.98%     99.64% |        1351      0.36%    100.00%
system.ruby.L1Cache_Controller.E_IL0.L0_Invalidate_Own::total       371331                      
system.ruby.L1Cache_Controller.E_IL0.L0_Invalidate_Else |        1909     28.76%     28.76% |        1264     19.04%     47.80% |        1803     27.16%     74.96% |        1662     25.04%    100.00%
system.ruby.L1Cache_Controller.E_IL0.L0_Invalidate_Else::total         6638                      
system.ruby.L1Cache_Controller.E_IL0.L0_Ack |        2244      0.60%      0.60% |       80405     21.37%     21.96% |      291155     77.38%     99.34% |        2472      0.66%    100.00%
system.ruby.L1Cache_Controller.E_IL0.L0_Ack::total       376276                      
system.ruby.L1Cache_Controller.M_IL0.L0_DataAck |        4630      9.96%      9.96% |        4214      9.07%     19.03% |       33082     71.18%     90.20% |        4553      9.80%    100.00%
system.ruby.L1Cache_Controller.M_IL0.L0_DataAck::total        46479                      
system.ruby.L1Cache_Controller.M_IL0.L0_Invalidate_Own |        2056      1.39%      1.39% |       20296     13.73%     15.13% |      122276     82.74%     97.87% |        3152      2.13%    100.00%
system.ruby.L1Cache_Controller.M_IL0.L0_Invalidate_Own::total       147780                      
system.ruby.L1Cache_Controller.M_IL0.L0_Invalidate_Else |        4903     38.62%     38.62% |        2279     17.95%     56.56% |        1676     13.20%     69.76% |        3839     30.24%    100.00%
system.ruby.L1Cache_Controller.M_IL0.L0_Invalidate_Else::total        12697                      
system.ruby.L1Cache_Controller.M_IL0.L0_Ack |        2329      2.04%      2.04% |       18361     16.11%     18.15% |       90870     79.71%     97.86% |        2438      2.14%    100.00%
system.ruby.L1Cache_Controller.M_IL0.L0_Ack::total       113998                      
system.ruby.L2Cache_Controller.L1_GETS       11192945      0.00%      0.00%
system.ruby.L2Cache_Controller.L1_GETX        3794467      0.00%      0.00%
system.ruby.L2Cache_Controller.L1_UPGRADE         8318      0.00%      0.00%
system.ruby.L2Cache_Controller.L1_PUTX       14576145      0.00%      0.00%
system.ruby.L2Cache_Controller.L2_Replacement      3348198      0.00%      0.00%
system.ruby.L2Cache_Controller.L2_Replacement_clean      2271603      0.00%      0.00%
system.ruby.L2Cache_Controller.Mem_Data       5658826      0.00%      0.00%
system.ruby.L2Cache_Controller.Mem_Ack        5620993      0.00%      0.00%
system.ruby.L2Cache_Controller.WB_Data          22380      0.00%      0.00%
system.ruby.L2Cache_Controller.WB_Data_clean        25399      0.00%      0.00%
system.ruby.L2Cache_Controller.Ack              22462      0.00%      0.00%
system.ruby.L2Cache_Controller.Ack_all          13668      0.00%      0.00%
system.ruby.L2Cache_Controller.Unblock          21315      0.00%      0.00%
system.ruby.L2Cache_Controller.Exclusive_Unblock     14629298      0.00%      0.00%
system.ruby.L2Cache_Controller.MEM_Inv           2384      0.00%      0.00%
system.ruby.L2Cache_Controller.NP.L1_GETS      3167796      0.00%      0.00%
system.ruby.L2Cache_Controller.NP.L1_GETX      2491030      0.00%      0.00%
system.ruby.L2Cache_Controller.SS.L1_GETS       345038      0.00%      0.00%
system.ruby.L2Cache_Controller.SS.L1_GETX         1225      0.00%      0.00%
system.ruby.L2Cache_Controller.SS.L1_UPGRADE         8318      0.00%      0.00%
system.ruby.L2Cache_Controller.SS.L1_PUTX            1      0.00%      0.00%
system.ruby.L2Cache_Controller.SS.L2_Replacement          953      0.00%      0.00%
system.ruby.L2Cache_Controller.SS.L2_Replacement_clean        10332      0.00%      0.00%
system.ruby.L2Cache_Controller.M.L1_GETS      7658730      0.00%      0.00%
system.ruby.L2Cache_Controller.M.L1_GETX      1299163      0.00%      0.00%
system.ruby.L2Cache_Controller.M.L2_Replacement      3345605      0.00%      0.00%
system.ruby.L2Cache_Controller.M.L2_Replacement_clean      2234167      0.00%      0.00%
system.ruby.L2Cache_Controller.M.MEM_Inv         1089      0.00%      0.00%
system.ruby.L2Cache_Controller.MT.L1_GETS        21315      0.00%      0.00%
system.ruby.L2Cache_Controller.MT.L1_GETX         3043      0.00%      0.00%
system.ruby.L2Cache_Controller.MT.L1_PUTX     14576143      0.00%      0.00%
system.ruby.L2Cache_Controller.MT.L2_Replacement         1640      0.00%      0.00%
system.ruby.L2Cache_Controller.MT.L2_Replacement_clean        27104      0.00%      0.00%
system.ruby.L2Cache_Controller.MT.MEM_Inv          103      0.00%      0.00%
system.ruby.L2Cache_Controller.M_I.L1_GETX            1      0.00%      0.00%
system.ruby.L2Cache_Controller.M_I.Mem_Ack      5620993      0.00%      0.00%
system.ruby.L2Cache_Controller.M_I.MEM_Inv         1089      0.00%      0.00%
system.ruby.L2Cache_Controller.MT_I.WB_Data         1452      0.00%      0.00%
system.ruby.L2Cache_Controller.MT_I.WB_Data_clean          230      0.00%      0.00%
system.ruby.L2Cache_Controller.MT_I.Ack_all           61      0.00%      0.00%
system.ruby.L2Cache_Controller.MT_I.MEM_Inv          103      0.00%      0.00%
system.ruby.L2Cache_Controller.MCT_I.WB_Data        14072      0.00%      0.00%
system.ruby.L2Cache_Controller.MCT_I.WB_Data_clean        10710      0.00%      0.00%
system.ruby.L2Cache_Controller.MCT_I.Ack_all         2322      0.00%      0.00%
system.ruby.L2Cache_Controller.I_I.Ack          21408      0.00%      0.00%
system.ruby.L2Cache_Controller.I_I.Ack_all        10332      0.00%      0.00%
system.ruby.L2Cache_Controller.S_I.Ack           1054      0.00%      0.00%
system.ruby.L2Cache_Controller.S_I.Ack_all          953      0.00%      0.00%
system.ruby.L2Cache_Controller.ISS.L1_GETS            7      0.00%      0.00%
system.ruby.L2Cache_Controller.ISS.Mem_Data      3167789      0.00%      0.00%
system.ruby.L2Cache_Controller.IS.Mem_Data            7      0.00%      0.00%
system.ruby.L2Cache_Controller.IM.Mem_Data      2491030      0.00%      0.00%
system.ruby.L2Cache_Controller.SS_MB.L1_GETS           41      0.00%      0.00%
system.ruby.L2Cache_Controller.SS_MB.L1_GETX            1      0.00%      0.00%
system.ruby.L2Cache_Controller.SS_MB.Exclusive_Unblock         9543      0.00%      0.00%
system.ruby.L2Cache_Controller.MT_MB.L1_GETS           12      0.00%      0.00%
system.ruby.L2Cache_Controller.MT_MB.L1_GETX            2      0.00%      0.00%
system.ruby.L2Cache_Controller.MT_MB.Exclusive_Unblock     14619755      0.00%      0.00%
system.ruby.L2Cache_Controller.MT_IIB.L1_GETS            6      0.00%      0.00%
system.ruby.L2Cache_Controller.MT_IIB.L1_GETX            2      0.00%      0.00%
system.ruby.L2Cache_Controller.MT_IIB.L1_PUTX            1      0.00%      0.00%
system.ruby.L2Cache_Controller.MT_IIB.WB_Data         6842      0.00%      0.00%
system.ruby.L2Cache_Controller.MT_IIB.WB_Data_clean        14420      0.00%      0.00%
system.ruby.L2Cache_Controller.MT_IIB.Unblock           53      0.00%      0.00%
system.ruby.L2Cache_Controller.MT_IB.WB_Data           14      0.00%      0.00%
system.ruby.L2Cache_Controller.MT_IB.WB_Data_clean           39      0.00%      0.00%
system.ruby.L2Cache_Controller.MT_SB.Unblock        21262      0.00%      0.00%

---------- End Simulation Statistics   ----------
