Redirecting stdout to /root/anthony/lelec2990-sim/swaptions/X86_MOESI_hammer/l1d_assoc/8way/stdout.txt
Redirecting stderr to /root/anthony/lelec2990-sim/swaptions/X86_MOESI_hammer/l1d_assoc/8way/stderr.txt
gem5 Simulator System.  http://gem5.org
gem5 is copyrighted software; use the --copyright option for details.

gem5 compiled Jun  1 2016 13:02:29
gem5 started Jun  3 2016 10:57:09
gem5 executing on furnas.info.ucl.ac.be, pid 827558
command line: /root/anthony/gem5/build/X86_MOESI_hammer/gem5.opt --outdir=/root/anthony/lelec2990-sim/swaptions/X86_MOESI_hammer/l1d_assoc/8way -e --stderr-file=/root/anthony/lelec2990-sim/swaptions/X86_MOESI_hammer/l1d_assoc/8way/stderr.txt -r --stdout-file=/root/anthony/lelec2990-sim/swaptions/X86_MOESI_hammer/l1d_assoc/8way/stdout.txt /root/anthony/gem5/configs/example/fs.py --mem-size 1GB --script /root/anthony/gem5/sim_script --num-cpus 4 --ruby -r 1 --restore-with-cpu timing --l1d_assoc 8

Global frequency set at 1000000000000 ticks per second
info: kernel located at: /root/anthony/debian/binaries/vmlinux
      0: rtc: Real-time clock set to Sun Jan  1 00:00:00 2012
**** REAL SIMULATION ****
info: Entering event queue @ 52300759870500.  Starting simulation...
Exiting @ tick 55903894555001 because m5_exit instruction encountered
