
---------- Begin Simulation Statistics ----------
sim_seconds                                  0.810375                       # Number of seconds simulated
sim_ticks                                810374993500                       # Number of ticks simulated
final_tick                               54893710505001                       # Number of ticks from beginning of simulation (restored from checkpoints and never reset)
sim_freq                                 1000000000000                       # Frequency of simulated ticks
host_inst_rate                                  96791                       # Simulator instruction rate (inst/s)
host_op_rate                                   160296                       # Simulator op (including micro ops) rate (op/s)
host_tick_rate                              280282785                       # Simulator tick rate (ticks/s)
host_mem_usage                                2187328                       # Number of bytes of host memory used
host_seconds                                  2891.28                       # Real time elapsed on the host
sim_insts                                   279849185                       # Number of instructions simulated
sim_ops                                     463461426                       # Number of ops (including micro ops) simulated
system.voltage_domain.voltage                       1                       # Voltage in Volts
system.clk_domain.clock                          1000                       # Clock period in ticks
system.mem_ctrls.bytes_read::ruby.dir_cntrl0    241987200                       # Number of bytes read from this memory
system.mem_ctrls.bytes_read::total          241987200                       # Number of bytes read from this memory
system.mem_ctrls.bytes_written::ruby.dir_cntrl0    128695168                       # Number of bytes written to this memory
system.mem_ctrls.bytes_written::total       128695168                       # Number of bytes written to this memory
system.mem_ctrls.num_reads::ruby.dir_cntrl0      3781050                       # Number of read requests responded to by this memory
system.mem_ctrls.num_reads::total             3781050                       # Number of read requests responded to by this memory
system.mem_ctrls.num_writes::ruby.dir_cntrl0      2010862                       # Number of write requests responded to by this memory
system.mem_ctrls.num_writes::total            2010862                       # Number of write requests responded to by this memory
system.mem_ctrls.bw_read::ruby.dir_cntrl0    298611386                       # Total read bandwidth from this memory (bytes/s)
system.mem_ctrls.bw_read::total             298611386                       # Total read bandwidth from this memory (bytes/s)
system.mem_ctrls.bw_write::ruby.dir_cntrl0    158809402                       # Write bandwidth from this memory (bytes/s)
system.mem_ctrls.bw_write::total            158809402                       # Write bandwidth from this memory (bytes/s)
system.mem_ctrls.bw_total::ruby.dir_cntrl0    457420788                       # Total bandwidth to/from this memory (bytes/s)
system.mem_ctrls.bw_total::total            457420788                       # Total bandwidth to/from this memory (bytes/s)
system.mem_ctrls.readReqs                     3781050                       # Number of read requests accepted
system.mem_ctrls.writeReqs                    2010862                       # Number of write requests accepted
system.mem_ctrls.readBursts                   3781050                       # Number of DRAM read bursts, including those serviced by the write queue
system.mem_ctrls.writeBursts                  2010862                       # Number of DRAM write bursts, including those merged in the write queue
system.mem_ctrls.bytesReadDRAM              241948288                       # Total number of bytes read from DRAM
system.mem_ctrls.bytesReadWrQ                   38912                       # Total number of bytes read from write queue
system.mem_ctrls.bytesWritten               128695040                       # Total number of bytes written to DRAM
system.mem_ctrls.bytesReadSys               241987200                       # Total read bytes from the system interface side
system.mem_ctrls.bytesWrittenSys            128695168                       # Total written bytes from the system interface side
system.mem_ctrls.servicedByWrQ                    608                       # Number of DRAM read bursts serviced by the write queue
system.mem_ctrls.mergedWrBursts                     0                       # Number of DRAM write bursts merged with an existing one
system.mem_ctrls.neitherReadNorWriteReqs            0                       # Number of requests that are neither read nor write
system.mem_ctrls.perBankRdBursts::0            235305                       # Per bank write bursts
system.mem_ctrls.perBankRdBursts::1            240036                       # Per bank write bursts
system.mem_ctrls.perBankRdBursts::2            230022                       # Per bank write bursts
system.mem_ctrls.perBankRdBursts::3            227876                       # Per bank write bursts
system.mem_ctrls.perBankRdBursts::4            238543                       # Per bank write bursts
system.mem_ctrls.perBankRdBursts::5            236232                       # Per bank write bursts
system.mem_ctrls.perBankRdBursts::6            240558                       # Per bank write bursts
system.mem_ctrls.perBankRdBursts::7            238427                       # Per bank write bursts
system.mem_ctrls.perBankRdBursts::8            248159                       # Per bank write bursts
system.mem_ctrls.perBankRdBursts::9            244737                       # Per bank write bursts
system.mem_ctrls.perBankRdBursts::10           238179                       # Per bank write bursts
system.mem_ctrls.perBankRdBursts::11           233385                       # Per bank write bursts
system.mem_ctrls.perBankRdBursts::12           239702                       # Per bank write bursts
system.mem_ctrls.perBankRdBursts::13           226273                       # Per bank write bursts
system.mem_ctrls.perBankRdBursts::14           232074                       # Per bank write bursts
system.mem_ctrls.perBankRdBursts::15           230934                       # Per bank write bursts
system.mem_ctrls.perBankWrBursts::0            126601                       # Per bank write bursts
system.mem_ctrls.perBankWrBursts::1            127339                       # Per bank write bursts
system.mem_ctrls.perBankWrBursts::2            123750                       # Per bank write bursts
system.mem_ctrls.perBankWrBursts::3            123341                       # Per bank write bursts
system.mem_ctrls.perBankWrBursts::4            124528                       # Per bank write bursts
system.mem_ctrls.perBankWrBursts::5            123300                       # Per bank write bursts
system.mem_ctrls.perBankWrBursts::6            124869                       # Per bank write bursts
system.mem_ctrls.perBankWrBursts::7            126688                       # Per bank write bursts
system.mem_ctrls.perBankWrBursts::8            128092                       # Per bank write bursts
system.mem_ctrls.perBankWrBursts::9            127481                       # Per bank write bursts
system.mem_ctrls.perBankWrBursts::10           126785                       # Per bank write bursts
system.mem_ctrls.perBankWrBursts::11           126334                       # Per bank write bursts
system.mem_ctrls.perBankWrBursts::12           128532                       # Per bank write bursts
system.mem_ctrls.perBankWrBursts::13           123702                       # Per bank write bursts
system.mem_ctrls.perBankWrBursts::14           124448                       # Per bank write bursts
system.mem_ctrls.perBankWrBursts::15           125070                       # Per bank write bursts
system.mem_ctrls.numRdRetry                         0                       # Number of times read queue was full causing retry
system.mem_ctrls.numWrRetry                         0                       # Number of times write queue was full causing retry
system.mem_ctrls.totGap                  810374918500                       # Total gap between requests
system.mem_ctrls.readPktSize::0                     0                       # Read request sizes (log2)
system.mem_ctrls.readPktSize::1                     0                       # Read request sizes (log2)
system.mem_ctrls.readPktSize::2                     0                       # Read request sizes (log2)
system.mem_ctrls.readPktSize::3                     0                       # Read request sizes (log2)
system.mem_ctrls.readPktSize::4                     0                       # Read request sizes (log2)
system.mem_ctrls.readPktSize::5                     0                       # Read request sizes (log2)
system.mem_ctrls.readPktSize::6               3781050                       # Read request sizes (log2)
system.mem_ctrls.writePktSize::0                    0                       # Write request sizes (log2)
system.mem_ctrls.writePktSize::1                    0                       # Write request sizes (log2)
system.mem_ctrls.writePktSize::2                    0                       # Write request sizes (log2)
system.mem_ctrls.writePktSize::3                    0                       # Write request sizes (log2)
system.mem_ctrls.writePktSize::4                    0                       # Write request sizes (log2)
system.mem_ctrls.writePktSize::5                    0                       # Write request sizes (log2)
system.mem_ctrls.writePktSize::6              2010862                       # Write request sizes (log2)
system.mem_ctrls.rdQLenPdf::0                 3758631                       # What read queue length does an incoming req see
system.mem_ctrls.rdQLenPdf::1                   21713                       # What read queue length does an incoming req see
system.mem_ctrls.rdQLenPdf::2                      98                       # What read queue length does an incoming req see
system.mem_ctrls.rdQLenPdf::3                       0                       # What read queue length does an incoming req see
system.mem_ctrls.rdQLenPdf::4                       0                       # What read queue length does an incoming req see
system.mem_ctrls.rdQLenPdf::5                       0                       # What read queue length does an incoming req see
system.mem_ctrls.rdQLenPdf::6                       0                       # What read queue length does an incoming req see
system.mem_ctrls.rdQLenPdf::7                       0                       # What read queue length does an incoming req see
system.mem_ctrls.rdQLenPdf::8                       0                       # What read queue length does an incoming req see
system.mem_ctrls.rdQLenPdf::9                       0                       # What read queue length does an incoming req see
system.mem_ctrls.rdQLenPdf::10                      0                       # What read queue length does an incoming req see
system.mem_ctrls.rdQLenPdf::11                      0                       # What read queue length does an incoming req see
system.mem_ctrls.rdQLenPdf::12                      0                       # What read queue length does an incoming req see
system.mem_ctrls.rdQLenPdf::13                      0                       # What read queue length does an incoming req see
system.mem_ctrls.rdQLenPdf::14                      0                       # What read queue length does an incoming req see
system.mem_ctrls.rdQLenPdf::15                      0                       # What read queue length does an incoming req see
system.mem_ctrls.rdQLenPdf::16                      0                       # What read queue length does an incoming req see
system.mem_ctrls.rdQLenPdf::17                      0                       # What read queue length does an incoming req see
system.mem_ctrls.rdQLenPdf::18                      0                       # What read queue length does an incoming req see
system.mem_ctrls.rdQLenPdf::19                      0                       # What read queue length does an incoming req see
system.mem_ctrls.rdQLenPdf::20                      0                       # What read queue length does an incoming req see
system.mem_ctrls.rdQLenPdf::21                      0                       # What read queue length does an incoming req see
system.mem_ctrls.rdQLenPdf::22                      0                       # What read queue length does an incoming req see
system.mem_ctrls.rdQLenPdf::23                      0                       # What read queue length does an incoming req see
system.mem_ctrls.rdQLenPdf::24                      0                       # What read queue length does an incoming req see
system.mem_ctrls.rdQLenPdf::25                      0                       # What read queue length does an incoming req see
system.mem_ctrls.rdQLenPdf::26                      0                       # What read queue length does an incoming req see
system.mem_ctrls.rdQLenPdf::27                      0                       # What read queue length does an incoming req see
system.mem_ctrls.rdQLenPdf::28                      0                       # What read queue length does an incoming req see
system.mem_ctrls.rdQLenPdf::29                      0                       # What read queue length does an incoming req see
system.mem_ctrls.rdQLenPdf::30                      0                       # What read queue length does an incoming req see
system.mem_ctrls.rdQLenPdf::31                      0                       # What read queue length does an incoming req see
system.mem_ctrls.wrQLenPdf::0                       0                       # What write queue length does an incoming req see
system.mem_ctrls.wrQLenPdf::1                       0                       # What write queue length does an incoming req see
system.mem_ctrls.wrQLenPdf::2                       0                       # What write queue length does an incoming req see
system.mem_ctrls.wrQLenPdf::3                       0                       # What write queue length does an incoming req see
system.mem_ctrls.wrQLenPdf::4                       0                       # What write queue length does an incoming req see
system.mem_ctrls.wrQLenPdf::5                       0                       # What write queue length does an incoming req see
system.mem_ctrls.wrQLenPdf::6                       0                       # What write queue length does an incoming req see
system.mem_ctrls.wrQLenPdf::7                       0                       # What write queue length does an incoming req see
system.mem_ctrls.wrQLenPdf::8                       0                       # What write queue length does an incoming req see
system.mem_ctrls.wrQLenPdf::9                       0                       # What write queue length does an incoming req see
system.mem_ctrls.wrQLenPdf::10                      0                       # What write queue length does an incoming req see
system.mem_ctrls.wrQLenPdf::11                      0                       # What write queue length does an incoming req see
system.mem_ctrls.wrQLenPdf::12                      0                       # What write queue length does an incoming req see
system.mem_ctrls.wrQLenPdf::13                      0                       # What write queue length does an incoming req see
system.mem_ctrls.wrQLenPdf::14                      0                       # What write queue length does an incoming req see
system.mem_ctrls.wrQLenPdf::15                  66337                       # What write queue length does an incoming req see
system.mem_ctrls.wrQLenPdf::16                  72465                       # What write queue length does an incoming req see
system.mem_ctrls.wrQLenPdf::17                 106648                       # What write queue length does an incoming req see
system.mem_ctrls.wrQLenPdf::18                 118021                       # What write queue length does an incoming req see
system.mem_ctrls.wrQLenPdf::19                 119206                       # What write queue length does an incoming req see
system.mem_ctrls.wrQLenPdf::20                 118861                       # What write queue length does an incoming req see
system.mem_ctrls.wrQLenPdf::21                 117526                       # What write queue length does an incoming req see
system.mem_ctrls.wrQLenPdf::22                 116870                       # What write queue length does an incoming req see
system.mem_ctrls.wrQLenPdf::23                 116641                       # What write queue length does an incoming req see
system.mem_ctrls.wrQLenPdf::24                 116707                       # What write queue length does an incoming req see
system.mem_ctrls.wrQLenPdf::25                 116938                       # What write queue length does an incoming req see
system.mem_ctrls.wrQLenPdf::26                 117453                       # What write queue length does an incoming req see
system.mem_ctrls.wrQLenPdf::27                 117241                       # What write queue length does an incoming req see
system.mem_ctrls.wrQLenPdf::28                 117449                       # What write queue length does an incoming req see
system.mem_ctrls.wrQLenPdf::29                 119458                       # What write queue length does an incoming req see
system.mem_ctrls.wrQLenPdf::30                 119630                       # What write queue length does an incoming req see
system.mem_ctrls.wrQLenPdf::31                 116464                       # What write queue length does an incoming req see
system.mem_ctrls.wrQLenPdf::32                 116348                       # What write queue length does an incoming req see
system.mem_ctrls.wrQLenPdf::33                    461                       # What write queue length does an incoming req see
system.mem_ctrls.wrQLenPdf::34                     74                       # What write queue length does an incoming req see
system.mem_ctrls.wrQLenPdf::35                     22                       # What write queue length does an incoming req see
system.mem_ctrls.wrQLenPdf::36                      5                       # What write queue length does an incoming req see
system.mem_ctrls.wrQLenPdf::37                      7                       # What write queue length does an incoming req see
system.mem_ctrls.wrQLenPdf::38                      3                       # What write queue length does an incoming req see
system.mem_ctrls.wrQLenPdf::39                      3                       # What write queue length does an incoming req see
system.mem_ctrls.wrQLenPdf::40                      3                       # What write queue length does an incoming req see
system.mem_ctrls.wrQLenPdf::41                      3                       # What write queue length does an incoming req see
system.mem_ctrls.wrQLenPdf::42                      3                       # What write queue length does an incoming req see
system.mem_ctrls.wrQLenPdf::43                      4                       # What write queue length does an incoming req see
system.mem_ctrls.wrQLenPdf::44                      2                       # What write queue length does an incoming req see
system.mem_ctrls.wrQLenPdf::45                      3                       # What write queue length does an incoming req see
system.mem_ctrls.wrQLenPdf::46                      2                       # What write queue length does an incoming req see
system.mem_ctrls.wrQLenPdf::47                      2                       # What write queue length does an incoming req see
system.mem_ctrls.wrQLenPdf::48                      1                       # What write queue length does an incoming req see
system.mem_ctrls.wrQLenPdf::49                      1                       # What write queue length does an incoming req see
system.mem_ctrls.wrQLenPdf::50                      0                       # What write queue length does an incoming req see
system.mem_ctrls.wrQLenPdf::51                      0                       # What write queue length does an incoming req see
system.mem_ctrls.wrQLenPdf::52                      0                       # What write queue length does an incoming req see
system.mem_ctrls.wrQLenPdf::53                      0                       # What write queue length does an incoming req see
system.mem_ctrls.wrQLenPdf::54                      0                       # What write queue length does an incoming req see
system.mem_ctrls.wrQLenPdf::55                      0                       # What write queue length does an incoming req see
system.mem_ctrls.wrQLenPdf::56                      0                       # What write queue length does an incoming req see
system.mem_ctrls.wrQLenPdf::57                      0                       # What write queue length does an incoming req see
system.mem_ctrls.wrQLenPdf::58                      0                       # What write queue length does an incoming req see
system.mem_ctrls.wrQLenPdf::59                      0                       # What write queue length does an incoming req see
system.mem_ctrls.wrQLenPdf::60                      0                       # What write queue length does an incoming req see
system.mem_ctrls.wrQLenPdf::61                      0                       # What write queue length does an incoming req see
system.mem_ctrls.wrQLenPdf::62                      0                       # What write queue length does an incoming req see
system.mem_ctrls.wrQLenPdf::63                      0                       # What write queue length does an incoming req see
system.mem_ctrls.bytesPerActivate::samples      5130056                       # Bytes accessed per row activation
system.mem_ctrls.bytesPerActivate::mean     72.249398                       # Bytes accessed per row activation
system.mem_ctrls.bytesPerActivate::gmean    68.992959                       # Bytes accessed per row activation
system.mem_ctrls.bytesPerActivate::stdev    39.187564                       # Bytes accessed per row activation
system.mem_ctrls.bytesPerActivate::0-127      4638586     90.42%     90.42% # Bytes accessed per row activation
system.mem_ctrls.bytesPerActivate::128-255       465376      9.07%     99.49% # Bytes accessed per row activation
system.mem_ctrls.bytesPerActivate::256-383        15142      0.30%     99.79% # Bytes accessed per row activation
system.mem_ctrls.bytesPerActivate::384-511         5012      0.10%     99.88% # Bytes accessed per row activation
system.mem_ctrls.bytesPerActivate::512-639          638      0.01%     99.90% # Bytes accessed per row activation
system.mem_ctrls.bytesPerActivate::640-767          434      0.01%     99.91% # Bytes accessed per row activation
system.mem_ctrls.bytesPerActivate::768-895          432      0.01%     99.91% # Bytes accessed per row activation
system.mem_ctrls.bytesPerActivate::896-1023          450      0.01%     99.92% # Bytes accessed per row activation
system.mem_ctrls.bytesPerActivate::1024-1151         3986      0.08%    100.00% # Bytes accessed per row activation
system.mem_ctrls.bytesPerActivate::total      5130056                       # Bytes accessed per row activation
system.mem_ctrls.rdPerTurnAround::samples       116304                       # Reads before turning the bus around for writes
system.mem_ctrls.rdPerTurnAround::mean      32.504677                       # Reads before turning the bus around for writes
system.mem_ctrls.rdPerTurnAround::stdev     11.594126                       # Reads before turning the bus around for writes
system.mem_ctrls.rdPerTurnAround::0-15           2779      2.39%      2.39% # Reads before turning the bus around for writes
system.mem_ctrls.rdPerTurnAround::16-31         54461     46.83%     49.22% # Reads before turning the bus around for writes
system.mem_ctrls.rdPerTurnAround::32-47         53561     46.05%     95.27% # Reads before turning the bus around for writes
system.mem_ctrls.rdPerTurnAround::48-63          4625      3.98%     99.25% # Reads before turning the bus around for writes
system.mem_ctrls.rdPerTurnAround::64-79           242      0.21%     99.45% # Reads before turning the bus around for writes
system.mem_ctrls.rdPerTurnAround::80-95           107      0.09%     99.55% # Reads before turning the bus around for writes
system.mem_ctrls.rdPerTurnAround::96-111          129      0.11%     99.66% # Reads before turning the bus around for writes
system.mem_ctrls.rdPerTurnAround::112-127          105      0.09%     99.75% # Reads before turning the bus around for writes
system.mem_ctrls.rdPerTurnAround::128-143          122      0.10%     99.85% # Reads before turning the bus around for writes
system.mem_ctrls.rdPerTurnAround::144-159           70      0.06%     99.91% # Reads before turning the bus around for writes
system.mem_ctrls.rdPerTurnAround::160-175           43      0.04%     99.95% # Reads before turning the bus around for writes
system.mem_ctrls.rdPerTurnAround::176-191           21      0.02%     99.97% # Reads before turning the bus around for writes
system.mem_ctrls.rdPerTurnAround::192-207           16      0.01%     99.98% # Reads before turning the bus around for writes
system.mem_ctrls.rdPerTurnAround::208-223            9      0.01%     99.99% # Reads before turning the bus around for writes
system.mem_ctrls.rdPerTurnAround::224-239            6      0.01%     99.99% # Reads before turning the bus around for writes
system.mem_ctrls.rdPerTurnAround::240-255            5      0.00%    100.00% # Reads before turning the bus around for writes
system.mem_ctrls.rdPerTurnAround::256-271            3      0.00%    100.00% # Reads before turning the bus around for writes
system.mem_ctrls.rdPerTurnAround::total        116304                       # Reads before turning the bus around for writes
system.mem_ctrls.wrPerTurnAround::samples       116304                       # Writes before turning the bus around for reads
system.mem_ctrls.wrPerTurnAround::mean      17.289689                       # Writes before turning the bus around for reads
system.mem_ctrls.wrPerTurnAround::gmean     17.252247                       # Writes before turning the bus around for reads
system.mem_ctrls.wrPerTurnAround::stdev      1.167096                       # Writes before turning the bus around for reads
system.mem_ctrls.wrPerTurnAround::16-17         49515     42.57%     42.57% # Writes before turning the bus around for reads
system.mem_ctrls.wrPerTurnAround::18-19         65620     56.42%     98.99% # Writes before turning the bus around for reads
system.mem_ctrls.wrPerTurnAround::20-21          1080      0.93%     99.92% # Writes before turning the bus around for reads
system.mem_ctrls.wrPerTurnAround::22-23            32      0.03%     99.95% # Writes before turning the bus around for reads
system.mem_ctrls.wrPerTurnAround::24-25             5      0.00%     99.96% # Writes before turning the bus around for reads
system.mem_ctrls.wrPerTurnAround::26-27             3      0.00%     99.96% # Writes before turning the bus around for reads
system.mem_ctrls.wrPerTurnAround::28-29             6      0.01%     99.96% # Writes before turning the bus around for reads
system.mem_ctrls.wrPerTurnAround::30-31             8      0.01%     99.97% # Writes before turning the bus around for reads
system.mem_ctrls.wrPerTurnAround::32-33             2      0.00%     99.97% # Writes before turning the bus around for reads
system.mem_ctrls.wrPerTurnAround::34-35            25      0.02%     99.99% # Writes before turning the bus around for reads
system.mem_ctrls.wrPerTurnAround::36-37             2      0.00%     99.99% # Writes before turning the bus around for reads
system.mem_ctrls.wrPerTurnAround::38-39             1      0.00%    100.00% # Writes before turning the bus around for reads
system.mem_ctrls.wrPerTurnAround::40-41             2      0.00%    100.00% # Writes before turning the bus around for reads
system.mem_ctrls.wrPerTurnAround::44-45             1      0.00%    100.00% # Writes before turning the bus around for reads
system.mem_ctrls.wrPerTurnAround::52-53             1      0.00%    100.00% # Writes before turning the bus around for reads
system.mem_ctrls.wrPerTurnAround::76-77             1      0.00%    100.00% # Writes before turning the bus around for reads
system.mem_ctrls.wrPerTurnAround::total        116304                       # Writes before turning the bus around for reads
system.mem_ctrls.totQLat                  84967653927                       # Total ticks spent queuing
system.mem_ctrls.totMemAccLat            155850941427                       # Total ticks spent from burst creation until serviced by the DRAM
system.mem_ctrls.totBusLat                18902210000                       # Total ticks spent in databus transfers
system.mem_ctrls.avgQLat                     22475.59                       # Average queueing delay per DRAM burst
system.mem_ctrls.avgBusLat                    5000.00                       # Average bus latency per DRAM burst
system.mem_ctrls.avgMemAccLat                41225.59                       # Average memory access latency per DRAM burst
system.mem_ctrls.avgRdBW                       298.56                       # Average DRAM read bandwidth in MiByte/s
system.mem_ctrls.avgWrBW                       158.81                       # Average achieved write bandwidth in MiByte/s
system.mem_ctrls.avgRdBWSys                    298.61                       # Average system read bandwidth in MiByte/s
system.mem_ctrls.avgWrBWSys                    158.81                       # Average system write bandwidth in MiByte/s
system.mem_ctrls.peakBW                      12800.00                       # Theoretical peak bandwidth in MiByte/s
system.mem_ctrls.busUtil                         3.57                       # Data bus utilization in percentage
system.mem_ctrls.busUtilRead                     2.33                       # Data bus utilization in percentage for reads
system.mem_ctrls.busUtilWrite                    1.24                       # Data bus utilization in percentage for writes
system.mem_ctrls.avgRdQLen                       1.00                       # Average read queue length when enqueuing
system.mem_ctrls.avgWrQLen                      24.94                       # Average write queue length when enqueuing
system.mem_ctrls.readRowHits                   578808                       # Number of row buffer hits during reads
system.mem_ctrls.writeRowHits                   82439                       # Number of row buffer hits during writes
system.mem_ctrls.readRowHitRate                 15.31                       # Row buffer hit rate for reads
system.mem_ctrls.writeRowHitRate                 4.10                       # Row buffer hit rate for writes
system.mem_ctrls.avgGap                     139914.92                       # Average gap between requests
system.mem_ctrls.pageHitRate                    11.42                       # Row buffer hit rate, read and write combined
system.mem_ctrls_0.actEnergy              19345072320                       # Energy for activate commands per rank (pJ)
system.mem_ctrls_0.preEnergy              10555347000                       # Energy for precharge commands per rank (pJ)
system.mem_ctrls_0.readEnergy             14884474800                       # Energy for read commands per rank (pJ)
system.mem_ctrls_0.writeEnergy             6487801920                       # Energy for write commands per rank (pJ)
system.mem_ctrls_0.refreshEnergy          53471524080                       # Energy for refresh commands per rank (pJ)
system.mem_ctrls_0.actBackEnergy         523108541880                       # Energy for active background per rank (pJ)
system.mem_ctrls_0.preBackEnergy          32334824250                       # Energy for precharge background per rank (pJ)
system.mem_ctrls_0.totalEnergy           660187586250                       # Total energy per rank (pJ)
system.mem_ctrls_0.averagePower            806.414833                       # Core power per rank (mW)
system.mem_ctrls_0.memoryStateTime::IDLE  47998144000                       # Time in different power states
system.mem_ctrls_0.memoryStateTime::REF   27060280000                       # Time in different power states
system.mem_ctrls_0.memoryStateTime::PRE_PDN            0                       # Time in different power states
system.mem_ctrls_0.memoryStateTime::ACT  735322730000                       # Time in different power states
system.mem_ctrls_0.memoryStateTime::ACT_PDN            0                       # Time in different power states
system.mem_ctrls_1.actEnergy              19490367960                       # Energy for activate commands per rank (pJ)
system.mem_ctrls_1.preEnergy              10634625375                       # Energy for precharge commands per rank (pJ)
system.mem_ctrls_1.readEnergy             14914185000                       # Energy for read commands per rank (pJ)
system.mem_ctrls_1.writeEnergy             6549802560                       # Energy for write commands per rank (pJ)
system.mem_ctrls_1.refreshEnergy          53471524080                       # Energy for refresh commands per rank (pJ)
system.mem_ctrls_1.actBackEnergy         522699240555                       # Energy for active background per rank (pJ)
system.mem_ctrls_1.preBackEnergy          32693860500                       # Energy for precharge background per rank (pJ)
system.mem_ctrls_1.totalEnergy           660453606030                       # Total energy per rank (pJ)
system.mem_ctrls_1.averagePower            806.739775                       # Core power per rank (mW)
system.mem_ctrls_1.memoryStateTime::IDLE  47521535000                       # Time in different power states
system.mem_ctrls_1.memoryStateTime::REF   27060280000                       # Time in different power states
system.mem_ctrls_1.memoryStateTime::PRE_PDN            0                       # Time in different power states
system.mem_ctrls_1.memoryStateTime::ACT  735795512500                       # Time in different power states
system.mem_ctrls_1.memoryStateTime::ACT_PDN            0                       # Time in different power states
system.cpu_voltage_domain.voltage                   1                       # Voltage in Volts
system.cpu_clk_domain.clock                       500                       # Clock period in ticks
system.cpu0.apic_clk_domain.clock                8000                       # Clock period in ticks
system.cpu0.numCycles                      1620500341                       # number of cpu cycles simulated
system.cpu0.numWorkItemsStarted                     0                       # number of work items this cpu started
system.cpu0.numWorkItemsCompleted                   0                       # number of work items this cpu completed
system.cpu0.kern.inst.arm                           0                       # number of arm instructions executed
system.cpu0.kern.inst.quiesce                       0                       # number of quiesce instructions executed
system.cpu0.committedInsts                  269415194                       # Number of instructions committed
system.cpu0.committedOps                    442862412                       # Number of ops (including micro ops) committed
system.cpu0.num_int_alu_accesses            346831898                       # Number of integer alu accesses
system.cpu0.num_fp_alu_accesses             109594681                       # Number of float alu accesses
system.cpu0.num_func_calls                    5385554                       # number of times a function call or return occured
system.cpu0.num_conditional_control_insts     16439663                       # number of instructions that are conditional controls
system.cpu0.num_int_insts                   346831898                       # number of integer instructions
system.cpu0.num_fp_insts                    109594681                       # number of float instructions
system.cpu0.num_int_register_reads          737677506                       # number of times the integer registers were read
system.cpu0.num_int_register_writes         276297188                       # number of times the integer registers were written
system.cpu0.num_fp_register_reads           204618310                       # number of times the floating registers were read
system.cpu0.num_fp_register_writes          105641720                       # number of times the floating registers were written
system.cpu0.num_cc_register_reads           177627107                       # number of times the CC registers were read
system.cpu0.num_cc_register_writes          152878089                       # number of times the CC registers were written
system.cpu0.num_mem_refs                     92947006                       # number of memory refs
system.cpu0.num_load_insts                   73896275                       # Number of load instructions
system.cpu0.num_store_insts                  19050731                       # Number of store instructions
system.cpu0.num_idle_cycles              18447359.098121                       # Number of idle cycles
system.cpu0.num_busy_cycles              1602052981.901879                       # Number of busy cycles
system.cpu0.not_idle_fraction                0.988616                       # Percentage of non-idle cycles
system.cpu0.idle_fraction                    0.011384                       # Percentage of idle cycles
system.cpu0.Branches                         26523278                       # Number of branches fetched
system.cpu0.op_class::No_OpClass              3914608      0.88%      0.88% # Class of executed instruction
system.cpu0.op_class::IntAlu                254984032     57.58%     58.46% # Class of executed instruction
system.cpu0.op_class::IntMult                    3134      0.00%     58.46% # Class of executed instruction
system.cpu0.op_class::IntDiv                      602      0.00%     58.46% # Class of executed instruction
system.cpu0.op_class::FloatAdd               91015565     20.55%     79.01% # Class of executed instruction
system.cpu0.op_class::FloatCmp                      0      0.00%     79.01% # Class of executed instruction
system.cpu0.op_class::FloatCvt                      0      0.00%     79.01% # Class of executed instruction
system.cpu0.op_class::FloatMult                     0      0.00%     79.01% # Class of executed instruction
system.cpu0.op_class::FloatDiv                      0      0.00%     79.01% # Class of executed instruction
system.cpu0.op_class::FloatSqrt                     0      0.00%     79.01% # Class of executed instruction
system.cpu0.op_class::SimdAdd                       0      0.00%     79.01% # Class of executed instruction
system.cpu0.op_class::SimdAddAcc                    0      0.00%     79.01% # Class of executed instruction
system.cpu0.op_class::SimdAlu                       0      0.00%     79.01% # Class of executed instruction
system.cpu0.op_class::SimdCmp                       0      0.00%     79.01% # Class of executed instruction
system.cpu0.op_class::SimdCvt                       0      0.00%     79.01% # Class of executed instruction
system.cpu0.op_class::SimdMisc                      0      0.00%     79.01% # Class of executed instruction
system.cpu0.op_class::SimdMult                      0      0.00%     79.01% # Class of executed instruction
system.cpu0.op_class::SimdMultAcc                   0      0.00%     79.01% # Class of executed instruction
system.cpu0.op_class::SimdShift                     0      0.00%     79.01% # Class of executed instruction
system.cpu0.op_class::SimdShiftAcc                  0      0.00%     79.01% # Class of executed instruction
system.cpu0.op_class::SimdSqrt                      0      0.00%     79.01% # Class of executed instruction
system.cpu0.op_class::SimdFloatAdd                  0      0.00%     79.01% # Class of executed instruction
system.cpu0.op_class::SimdFloatAlu                  0      0.00%     79.01% # Class of executed instruction
system.cpu0.op_class::SimdFloatCmp                  0      0.00%     79.01% # Class of executed instruction
system.cpu0.op_class::SimdFloatCvt                  0      0.00%     79.01% # Class of executed instruction
system.cpu0.op_class::SimdFloatDiv                  0      0.00%     79.01% # Class of executed instruction
system.cpu0.op_class::SimdFloatMisc                 0      0.00%     79.01% # Class of executed instruction
system.cpu0.op_class::SimdFloatMult                 0      0.00%     79.01% # Class of executed instruction
system.cpu0.op_class::SimdFloatMultAcc              0      0.00%     79.01% # Class of executed instruction
system.cpu0.op_class::SimdFloatSqrt                 0      0.00%     79.01% # Class of executed instruction
system.cpu0.op_class::MemRead                73896275     16.69%     95.70% # Class of executed instruction
system.cpu0.op_class::MemWrite               19050731      4.30%    100.00% # Class of executed instruction
system.cpu0.op_class::IprAccess                     0      0.00%    100.00% # Class of executed instruction
system.cpu0.op_class::InstPrefetch                  0      0.00%    100.00% # Class of executed instruction
system.cpu0.op_class::total                 442864947                       # Class of executed instruction
system.cpu1.apic_clk_domain.clock                8000                       # Clock period in ticks
system.cpu1.numCycles                      1622754285                       # number of cpu cycles simulated
system.cpu1.numWorkItemsStarted                     0                       # number of work items this cpu started
system.cpu1.numWorkItemsCompleted                   0                       # number of work items this cpu completed
system.cpu1.kern.inst.arm                           0                       # number of arm instructions executed
system.cpu1.kern.inst.quiesce                       0                       # number of quiesce instructions executed
system.cpu1.committedInsts                    3068738                       # Number of instructions committed
system.cpu1.committedOps                      6094908                       # Number of ops (including micro ops) committed
system.cpu1.num_int_alu_accesses              5961613                       # Number of integer alu accesses
system.cpu1.num_fp_alu_accesses                   487                       # Number of float alu accesses
system.cpu1.num_func_calls                     127363                       # number of times a function call or return occured
system.cpu1.num_conditional_control_insts       530235                       # number of instructions that are conditional controls
system.cpu1.num_int_insts                     5961613                       # number of integer instructions
system.cpu1.num_fp_insts                          487                       # number of float instructions
system.cpu1.num_int_register_reads           11507073                       # number of times the integer registers were read
system.cpu1.num_int_register_writes           4877596                       # number of times the integer registers were written
system.cpu1.num_fp_register_reads                 791                       # number of times the floating registers were read
system.cpu1.num_fp_register_writes                356                       # number of times the floating registers were written
system.cpu1.num_cc_register_reads             3871580                       # number of times the CC registers were read
system.cpu1.num_cc_register_writes            2304398                       # number of times the CC registers were written
system.cpu1.num_mem_refs                      1177250                       # number of memory refs
system.cpu1.num_load_insts                     746884                       # Number of load instructions
system.cpu1.num_store_insts                    430366                       # Number of store instructions
system.cpu1.num_idle_cycles              1606809560.356744                       # Number of idle cycles
system.cpu1.num_busy_cycles              15944724.643256                       # Number of busy cycles
system.cpu1.not_idle_fraction                0.009826                       # Percentage of non-idle cycles
system.cpu1.idle_fraction                    0.990174                       # Percentage of idle cycles
system.cpu1.Branches                           701292                       # Number of branches fetched
system.cpu1.op_class::No_OpClass                37480      0.61%      0.61% # Class of executed instruction
system.cpu1.op_class::IntAlu                  4865261     79.82%     80.44% # Class of executed instruction
system.cpu1.op_class::IntMult                    8116      0.13%     80.57% # Class of executed instruction
system.cpu1.op_class::IntDiv                     6556      0.11%     80.68% # Class of executed instruction
system.cpu1.op_class::FloatAdd                    334      0.01%     80.68% # Class of executed instruction
system.cpu1.op_class::FloatCmp                      0      0.00%     80.68% # Class of executed instruction
system.cpu1.op_class::FloatCvt                      0      0.00%     80.68% # Class of executed instruction
system.cpu1.op_class::FloatMult                     0      0.00%     80.68% # Class of executed instruction
system.cpu1.op_class::FloatDiv                      0      0.00%     80.68% # Class of executed instruction
system.cpu1.op_class::FloatSqrt                     0      0.00%     80.68% # Class of executed instruction
system.cpu1.op_class::SimdAdd                       0      0.00%     80.68% # Class of executed instruction
system.cpu1.op_class::SimdAddAcc                    0      0.00%     80.68% # Class of executed instruction
system.cpu1.op_class::SimdAlu                       0      0.00%     80.68% # Class of executed instruction
system.cpu1.op_class::SimdCmp                       0      0.00%     80.68% # Class of executed instruction
system.cpu1.op_class::SimdCvt                       0      0.00%     80.68% # Class of executed instruction
system.cpu1.op_class::SimdMisc                      0      0.00%     80.68% # Class of executed instruction
system.cpu1.op_class::SimdMult                      0      0.00%     80.68% # Class of executed instruction
system.cpu1.op_class::SimdMultAcc                   0      0.00%     80.68% # Class of executed instruction
system.cpu1.op_class::SimdShift                     0      0.00%     80.68% # Class of executed instruction
system.cpu1.op_class::SimdShiftAcc                  0      0.00%     80.68% # Class of executed instruction
system.cpu1.op_class::SimdSqrt                      0      0.00%     80.68% # Class of executed instruction
system.cpu1.op_class::SimdFloatAdd                  0      0.00%     80.68% # Class of executed instruction
system.cpu1.op_class::SimdFloatAlu                  0      0.00%     80.68% # Class of executed instruction
system.cpu1.op_class::SimdFloatCmp                  0      0.00%     80.68% # Class of executed instruction
system.cpu1.op_class::SimdFloatCvt                  0      0.00%     80.68% # Class of executed instruction
system.cpu1.op_class::SimdFloatDiv                  0      0.00%     80.68% # Class of executed instruction
system.cpu1.op_class::SimdFloatMisc                 0      0.00%     80.68% # Class of executed instruction
system.cpu1.op_class::SimdFloatMult                 0      0.00%     80.68% # Class of executed instruction
system.cpu1.op_class::SimdFloatMultAcc              0      0.00%     80.68% # Class of executed instruction
system.cpu1.op_class::SimdFloatSqrt                 0      0.00%     80.68% # Class of executed instruction
system.cpu1.op_class::MemRead                  746884     12.25%     92.94% # Class of executed instruction
system.cpu1.op_class::MemWrite                 430366      7.06%    100.00% # Class of executed instruction
system.cpu1.op_class::IprAccess                     0      0.00%    100.00% # Class of executed instruction
system.cpu1.op_class::InstPrefetch                  0      0.00%    100.00% # Class of executed instruction
system.cpu1.op_class::total                   6094997                       # Class of executed instruction
system.cpu2.apic_clk_domain.clock                8000                       # Clock period in ticks
system.cpu2.numCycles                      1615891141                       # number of cpu cycles simulated
system.cpu2.numWorkItemsStarted                     0                       # number of work items this cpu started
system.cpu2.numWorkItemsCompleted                   0                       # number of work items this cpu completed
system.cpu2.kern.inst.arm                           0                       # number of arm instructions executed
system.cpu2.kern.inst.quiesce                       0                       # number of quiesce instructions executed
system.cpu2.committedInsts                    1347203                       # Number of instructions committed
system.cpu2.committedOps                      2801588                       # Number of ops (including micro ops) committed
system.cpu2.num_int_alu_accesses              2752455                       # Number of integer alu accesses
system.cpu2.num_fp_alu_accesses                    68                       # Number of float alu accesses
system.cpu2.num_func_calls                      71522                       # number of times a function call or return occured
system.cpu2.num_conditional_control_insts       234816                       # number of instructions that are conditional controls
system.cpu2.num_int_insts                     2752455                       # number of integer instructions
system.cpu2.num_fp_insts                           68                       # number of float instructions
system.cpu2.num_int_register_reads            5369683                       # number of times the integer registers were read
system.cpu2.num_int_register_writes           2258771                       # number of times the integer registers were written
system.cpu2.num_fp_register_reads                  70                       # number of times the floating registers were read
system.cpu2.num_fp_register_writes                 62                       # number of times the floating registers were written
system.cpu2.num_cc_register_reads             1741142                       # number of times the CC registers were read
system.cpu2.num_cc_register_writes             930659                       # number of times the CC registers were written
system.cpu2.num_mem_refs                       571272                       # number of memory refs
system.cpu2.num_load_insts                     355527                       # Number of load instructions
system.cpu2.num_store_insts                    215745                       # Number of store instructions
system.cpu2.num_idle_cycles              1609990019.194895                       # Number of idle cycles
system.cpu2.num_busy_cycles              5901121.805105                       # Number of busy cycles
system.cpu2.not_idle_fraction                0.003652                       # Percentage of non-idle cycles
system.cpu2.idle_fraction                    0.996348                       # Percentage of idle cycles
system.cpu2.Branches                           329235                       # Number of branches fetched
system.cpu2.op_class::No_OpClass                35449      1.27%      1.27% # Class of executed instruction
system.cpu2.op_class::IntAlu                  2182248     77.88%     79.14% # Class of executed instruction
system.cpu2.op_class::IntMult                    3830      0.14%     79.28% # Class of executed instruction
system.cpu2.op_class::IntDiv                     9326      0.33%     79.61% # Class of executed instruction
system.cpu2.op_class::FloatAdd                     24      0.00%     79.61% # Class of executed instruction
system.cpu2.op_class::FloatCmp                      0      0.00%     79.61% # Class of executed instruction
system.cpu2.op_class::FloatCvt                      0      0.00%     79.61% # Class of executed instruction
system.cpu2.op_class::FloatMult                     0      0.00%     79.61% # Class of executed instruction
system.cpu2.op_class::FloatDiv                      0      0.00%     79.61% # Class of executed instruction
system.cpu2.op_class::FloatSqrt                     0      0.00%     79.61% # Class of executed instruction
system.cpu2.op_class::SimdAdd                       0      0.00%     79.61% # Class of executed instruction
system.cpu2.op_class::SimdAddAcc                    0      0.00%     79.61% # Class of executed instruction
system.cpu2.op_class::SimdAlu                       0      0.00%     79.61% # Class of executed instruction
system.cpu2.op_class::SimdCmp                       0      0.00%     79.61% # Class of executed instruction
system.cpu2.op_class::SimdCvt                       0      0.00%     79.61% # Class of executed instruction
system.cpu2.op_class::SimdMisc                      0      0.00%     79.61% # Class of executed instruction
system.cpu2.op_class::SimdMult                      0      0.00%     79.61% # Class of executed instruction
system.cpu2.op_class::SimdMultAcc                   0      0.00%     79.61% # Class of executed instruction
system.cpu2.op_class::SimdShift                     0      0.00%     79.61% # Class of executed instruction
system.cpu2.op_class::SimdShiftAcc                  0      0.00%     79.61% # Class of executed instruction
system.cpu2.op_class::SimdSqrt                      0      0.00%     79.61% # Class of executed instruction
system.cpu2.op_class::SimdFloatAdd                  0      0.00%     79.61% # Class of executed instruction
system.cpu2.op_class::SimdFloatAlu                  0      0.00%     79.61% # Class of executed instruction
system.cpu2.op_class::SimdFloatCmp                  0      0.00%     79.61% # Class of executed instruction
system.cpu2.op_class::SimdFloatCvt                  0      0.00%     79.61% # Class of executed instruction
system.cpu2.op_class::SimdFloatDiv                  0      0.00%     79.61% # Class of executed instruction
system.cpu2.op_class::SimdFloatMisc                 0      0.00%     79.61% # Class of executed instruction
system.cpu2.op_class::SimdFloatMult                 0      0.00%     79.61% # Class of executed instruction
system.cpu2.op_class::SimdFloatMultAcc              0      0.00%     79.61% # Class of executed instruction
system.cpu2.op_class::SimdFloatSqrt                 0      0.00%     79.61% # Class of executed instruction
system.cpu2.op_class::MemRead                  355527     12.69%     92.30% # Class of executed instruction
system.cpu2.op_class::MemWrite                 215745      7.70%    100.00% # Class of executed instruction
system.cpu2.op_class::IprAccess                     0      0.00%    100.00% # Class of executed instruction
system.cpu2.op_class::InstPrefetch                  0      0.00%    100.00% # Class of executed instruction
system.cpu2.op_class::total                   2802149                       # Class of executed instruction
system.cpu3.apic_clk_domain.clock                8000                       # Clock period in ticks
system.cpu3.numCycles                      1618762994                       # number of cpu cycles simulated
system.cpu3.numWorkItemsStarted                     0                       # number of work items this cpu started
system.cpu3.numWorkItemsCompleted                   0                       # number of work items this cpu completed
system.cpu3.kern.inst.arm                           0                       # number of arm instructions executed
system.cpu3.kern.inst.quiesce                       0                       # number of quiesce instructions executed
system.cpu3.committedInsts                    2783551                       # Number of instructions committed
system.cpu3.committedOps                      5477720                       # Number of ops (including micro ops) committed
system.cpu3.num_int_alu_accesses              5391075                       # Number of integer alu accesses
system.cpu3.num_fp_alu_accesses                  1813                       # Number of float alu accesses
system.cpu3.num_func_calls                     133588                       # number of times a function call or return occured
system.cpu3.num_conditional_control_insts       498987                       # number of instructions that are conditional controls
system.cpu3.num_int_insts                     5391075                       # number of integer instructions
system.cpu3.num_fp_insts                         1813                       # number of float instructions
system.cpu3.num_int_register_reads           10571028                       # number of times the integer registers were read
system.cpu3.num_int_register_writes           4363888                       # number of times the integer registers were written
system.cpu3.num_fp_register_reads                3040                       # number of times the floating registers were read
system.cpu3.num_fp_register_writes               1440                       # number of times the floating registers were written
system.cpu3.num_cc_register_reads             3613492                       # number of times the CC registers were read
system.cpu3.num_cc_register_writes            1931192                       # number of times the CC registers were written
system.cpu3.num_mem_refs                      1174252                       # number of memory refs
system.cpu3.num_load_insts                     760145                       # Number of load instructions
system.cpu3.num_store_insts                    414107                       # Number of store instructions
system.cpu3.num_idle_cycles              1606777717.675094                       # Number of idle cycles
system.cpu3.num_busy_cycles              11985276.324906                       # Number of busy cycles
system.cpu3.not_idle_fraction                0.007404                       # Percentage of non-idle cycles
system.cpu3.idle_fraction                    0.992596                       # Percentage of idle cycles
system.cpu3.Branches                           657137                       # Number of branches fetched
system.cpu3.op_class::No_OpClass                29342      0.54%      0.54% # Class of executed instruction
system.cpu3.op_class::IntAlu                  4260157     77.77%     78.31% # Class of executed instruction
system.cpu3.op_class::IntMult                    4174      0.08%     78.38% # Class of executed instruction
system.cpu3.op_class::IntDiv                     8532      0.16%     78.54% # Class of executed instruction
system.cpu3.op_class::FloatAdd                   1356      0.02%     78.56% # Class of executed instruction
system.cpu3.op_class::FloatCmp                      0      0.00%     78.56% # Class of executed instruction
system.cpu3.op_class::FloatCvt                      0      0.00%     78.56% # Class of executed instruction
system.cpu3.op_class::FloatMult                     0      0.00%     78.56% # Class of executed instruction
system.cpu3.op_class::FloatDiv                      0      0.00%     78.56% # Class of executed instruction
system.cpu3.op_class::FloatSqrt                     0      0.00%     78.56% # Class of executed instruction
system.cpu3.op_class::SimdAdd                       0      0.00%     78.56% # Class of executed instruction
system.cpu3.op_class::SimdAddAcc                    0      0.00%     78.56% # Class of executed instruction
system.cpu3.op_class::SimdAlu                       0      0.00%     78.56% # Class of executed instruction
system.cpu3.op_class::SimdCmp                       0      0.00%     78.56% # Class of executed instruction
system.cpu3.op_class::SimdCvt                       0      0.00%     78.56% # Class of executed instruction
system.cpu3.op_class::SimdMisc                      0      0.00%     78.56% # Class of executed instruction
system.cpu3.op_class::SimdMult                      0      0.00%     78.56% # Class of executed instruction
system.cpu3.op_class::SimdMultAcc                   0      0.00%     78.56% # Class of executed instruction
system.cpu3.op_class::SimdShift                     0      0.00%     78.56% # Class of executed instruction
system.cpu3.op_class::SimdShiftAcc                  0      0.00%     78.56% # Class of executed instruction
system.cpu3.op_class::SimdSqrt                      0      0.00%     78.56% # Class of executed instruction
system.cpu3.op_class::SimdFloatAdd                  0      0.00%     78.56% # Class of executed instruction
system.cpu3.op_class::SimdFloatAlu                  0      0.00%     78.56% # Class of executed instruction
system.cpu3.op_class::SimdFloatCmp                  0      0.00%     78.56% # Class of executed instruction
system.cpu3.op_class::SimdFloatCvt                  0      0.00%     78.56% # Class of executed instruction
system.cpu3.op_class::SimdFloatDiv                  0      0.00%     78.56% # Class of executed instruction
system.cpu3.op_class::SimdFloatMisc                 0      0.00%     78.56% # Class of executed instruction
system.cpu3.op_class::SimdFloatMult                 0      0.00%     78.56% # Class of executed instruction
system.cpu3.op_class::SimdFloatMultAcc              0      0.00%     78.56% # Class of executed instruction
system.cpu3.op_class::SimdFloatSqrt                 0      0.00%     78.56% # Class of executed instruction
system.cpu3.op_class::MemRead                  760145     13.88%     92.44% # Class of executed instruction
system.cpu3.op_class::MemWrite                 414107      7.56%    100.00% # Class of executed instruction
system.cpu3.op_class::IprAccess                     0      0.00%    100.00% # Class of executed instruction
system.cpu3.op_class::InstPrefetch                  0      0.00%    100.00% # Class of executed instruction
system.cpu3.op_class::total                   5477813                       # Class of executed instruction
system.iobus.trans_dist::ReadReq                  554                       # Transaction distribution
system.iobus.trans_dist::ReadResp                 554                       # Transaction distribution
system.iobus.trans_dist::WriteReq                1822                       # Transaction distribution
system.iobus.trans_dist::WriteResp               1822                       # Transaction distribution
system.iobus.trans_dist::MessageReq                75                       # Transaction distribution
system.iobus.trans_dist::MessageResp               75                       # Transaction distribution
system.iobus.pkt_count_system.pc.south_bridge.io_apic.int_master::system.ruby.l1_cntrl0.sequencer.pio-slave-port           32                       # Packet count per connected master and slave (bytes)
system.iobus.pkt_count_system.pc.south_bridge.io_apic.int_master::system.ruby.l1_cntrl1.sequencer.pio-slave-port           30                       # Packet count per connected master and slave (bytes)
system.iobus.pkt_count_system.pc.south_bridge.io_apic.int_master::system.ruby.l1_cntrl2.sequencer.pio-slave-port           30                       # Packet count per connected master and slave (bytes)
system.iobus.pkt_count_system.pc.south_bridge.io_apic.int_master::system.ruby.l1_cntrl3.sequencer.pio-slave-port           32                       # Packet count per connected master and slave (bytes)
system.iobus.pkt_count_system.pc.south_bridge.io_apic.int_master::total          124                       # Packet count per connected master and slave (bytes)
system.iobus.pkt_count_system.ruby.l1_cntrl0.sequencer.mem-master-port::system.pc.south_bridge.ide.pio          656                       # Packet count per connected master and slave (bytes)
system.iobus.pkt_count_system.ruby.l1_cntrl0.sequencer.mem-master-port::system.pc.south_bridge.io_apic.pio            8                       # Packet count per connected master and slave (bytes)
system.iobus.pkt_count_system.ruby.l1_cntrl0.sequencer.mem-master-port::system.pc.com_1.pio            2                       # Packet count per connected master and slave (bytes)
system.iobus.pkt_count_system.ruby.l1_cntrl0.sequencer.mem-master-port::system.ruby.l1_cntrl0.sequencer.pio-slave-port          460                       # Packet count per connected master and slave (bytes)
system.iobus.pkt_count_system.ruby.l1_cntrl0.sequencer.mem-master-port::system.ruby.l1_cntrl1.sequencer.pio-slave-port            4                       # Packet count per connected master and slave (bytes)
system.iobus.pkt_count_system.ruby.l1_cntrl0.sequencer.mem-master-port::system.ruby.l1_cntrl2.sequencer.pio-slave-port            2                       # Packet count per connected master and slave (bytes)
system.iobus.pkt_count_system.ruby.l1_cntrl0.sequencer.mem-master-port::system.ruby.l1_cntrl3.sequencer.pio-slave-port            2                       # Packet count per connected master and slave (bytes)
system.iobus.pkt_count_system.ruby.l1_cntrl0.sequencer.mem-master-port::total         1134                       # Packet count per connected master and slave (bytes)
system.iobus.pkt_count_system.ruby.l1_cntrl1.sequencer.mem-master-port::system.pc.south_bridge.ide.pio          860                       # Packet count per connected master and slave (bytes)
system.iobus.pkt_count_system.ruby.l1_cntrl1.sequencer.mem-master-port::system.ruby.l1_cntrl0.sequencer.pio-slave-port            4                       # Packet count per connected master and slave (bytes)
system.iobus.pkt_count_system.ruby.l1_cntrl1.sequencer.mem-master-port::system.ruby.l1_cntrl1.sequencer.pio-slave-port          468                       # Packet count per connected master and slave (bytes)
system.iobus.pkt_count_system.ruby.l1_cntrl1.sequencer.mem-master-port::system.ruby.l1_cntrl2.sequencer.pio-slave-port            4                       # Packet count per connected master and slave (bytes)
system.iobus.pkt_count_system.ruby.l1_cntrl1.sequencer.mem-master-port::total         1336                       # Packet count per connected master and slave (bytes)
system.iobus.pkt_count_system.ruby.l1_cntrl2.sequencer.mem-master-port::system.pc.south_bridge.ide.pio          610                       # Packet count per connected master and slave (bytes)
system.iobus.pkt_count_system.ruby.l1_cntrl2.sequencer.mem-master-port::system.pc.south_bridge.io_apic.pio            6                       # Packet count per connected master and slave (bytes)
system.iobus.pkt_count_system.ruby.l1_cntrl2.sequencer.mem-master-port::system.pc.com_1.pio          174                       # Packet count per connected master and slave (bytes)
system.iobus.pkt_count_system.ruby.l1_cntrl2.sequencer.mem-master-port::system.ruby.l1_cntrl1.sequencer.pio-slave-port            2                       # Packet count per connected master and slave (bytes)
system.iobus.pkt_count_system.ruby.l1_cntrl2.sequencer.mem-master-port::system.ruby.l1_cntrl2.sequencer.pio-slave-port          454                       # Packet count per connected master and slave (bytes)
system.iobus.pkt_count_system.ruby.l1_cntrl2.sequencer.mem-master-port::system.ruby.l1_cntrl3.sequencer.pio-slave-port            2                       # Packet count per connected master and slave (bytes)
system.iobus.pkt_count_system.ruby.l1_cntrl2.sequencer.mem-master-port::total         1248                       # Packet count per connected master and slave (bytes)
system.iobus.pkt_count_system.ruby.l1_cntrl3.sequencer.mem-master-port::system.pc.south_bridge.ide.pio          588                       # Packet count per connected master and slave (bytes)
system.iobus.pkt_count_system.ruby.l1_cntrl3.sequencer.mem-master-port::system.pc.south_bridge.io_apic.pio            8                       # Packet count per connected master and slave (bytes)
system.iobus.pkt_count_system.ruby.l1_cntrl3.sequencer.mem-master-port::system.ruby.l1_cntrl0.sequencer.pio-slave-port            2                       # Packet count per connected master and slave (bytes)
system.iobus.pkt_count_system.ruby.l1_cntrl3.sequencer.mem-master-port::system.ruby.l1_cntrl1.sequencer.pio-slave-port            2                       # Packet count per connected master and slave (bytes)
system.iobus.pkt_count_system.ruby.l1_cntrl3.sequencer.mem-master-port::system.ruby.l1_cntrl2.sequencer.pio-slave-port            2                       # Packet count per connected master and slave (bytes)
system.iobus.pkt_count_system.ruby.l1_cntrl3.sequencer.mem-master-port::system.ruby.l1_cntrl3.sequencer.pio-slave-port          458                       # Packet count per connected master and slave (bytes)
system.iobus.pkt_count_system.ruby.l1_cntrl3.sequencer.mem-master-port::total         1060                       # Packet count per connected master and slave (bytes)
system.iobus.pkt_count::total                    4902                       # Packet count per connected master and slave (bytes)
system.iobus.pkt_size_system.pc.south_bridge.io_apic.int_master::system.ruby.l1_cntrl0.sequencer.pio-slave-port           64                       # Cumulative packet size per connected master and slave (bytes)
system.iobus.pkt_size_system.pc.south_bridge.io_apic.int_master::system.ruby.l1_cntrl1.sequencer.pio-slave-port           60                       # Cumulative packet size per connected master and slave (bytes)
system.iobus.pkt_size_system.pc.south_bridge.io_apic.int_master::system.ruby.l1_cntrl2.sequencer.pio-slave-port           60                       # Cumulative packet size per connected master and slave (bytes)
system.iobus.pkt_size_system.pc.south_bridge.io_apic.int_master::system.ruby.l1_cntrl3.sequencer.pio-slave-port           64                       # Cumulative packet size per connected master and slave (bytes)
system.iobus.pkt_size_system.pc.south_bridge.io_apic.int_master::total          248                       # Cumulative packet size per connected master and slave (bytes)
system.iobus.pkt_size_system.ruby.l1_cntrl0.sequencer.mem-master-port::system.pc.south_bridge.ide.pio          370                       # Cumulative packet size per connected master and slave (bytes)
system.iobus.pkt_size_system.ruby.l1_cntrl0.sequencer.mem-master-port::system.pc.south_bridge.io_apic.pio           16                       # Cumulative packet size per connected master and slave (bytes)
system.iobus.pkt_size_system.ruby.l1_cntrl0.sequencer.mem-master-port::system.pc.com_1.pio            1                       # Cumulative packet size per connected master and slave (bytes)
system.iobus.pkt_size_system.ruby.l1_cntrl0.sequencer.mem-master-port::system.ruby.l1_cntrl0.sequencer.pio-slave-port          920                       # Cumulative packet size per connected master and slave (bytes)
system.iobus.pkt_size_system.ruby.l1_cntrl0.sequencer.mem-master-port::system.ruby.l1_cntrl1.sequencer.pio-slave-port            8                       # Cumulative packet size per connected master and slave (bytes)
system.iobus.pkt_size_system.ruby.l1_cntrl0.sequencer.mem-master-port::system.ruby.l1_cntrl2.sequencer.pio-slave-port            4                       # Cumulative packet size per connected master and slave (bytes)
system.iobus.pkt_size_system.ruby.l1_cntrl0.sequencer.mem-master-port::system.ruby.l1_cntrl3.sequencer.pio-slave-port            4                       # Cumulative packet size per connected master and slave (bytes)
system.iobus.pkt_size_system.ruby.l1_cntrl0.sequencer.mem-master-port::total         1323                       # Cumulative packet size per connected master and slave (bytes)
system.iobus.pkt_size_system.ruby.l1_cntrl1.sequencer.mem-master-port::system.pc.south_bridge.ide.pio          490                       # Cumulative packet size per connected master and slave (bytes)
system.iobus.pkt_size_system.ruby.l1_cntrl1.sequencer.mem-master-port::system.ruby.l1_cntrl0.sequencer.pio-slave-port            8                       # Cumulative packet size per connected master and slave (bytes)
system.iobus.pkt_size_system.ruby.l1_cntrl1.sequencer.mem-master-port::system.ruby.l1_cntrl1.sequencer.pio-slave-port          936                       # Cumulative packet size per connected master and slave (bytes)
system.iobus.pkt_size_system.ruby.l1_cntrl1.sequencer.mem-master-port::system.ruby.l1_cntrl2.sequencer.pio-slave-port            8                       # Cumulative packet size per connected master and slave (bytes)
system.iobus.pkt_size_system.ruby.l1_cntrl1.sequencer.mem-master-port::total         1442                       # Cumulative packet size per connected master and slave (bytes)
system.iobus.pkt_size_system.ruby.l1_cntrl2.sequencer.mem-master-port::system.pc.south_bridge.ide.pio          344                       # Cumulative packet size per connected master and slave (bytes)
system.iobus.pkt_size_system.ruby.l1_cntrl2.sequencer.mem-master-port::system.pc.south_bridge.io_apic.pio           12                       # Cumulative packet size per connected master and slave (bytes)
system.iobus.pkt_size_system.ruby.l1_cntrl2.sequencer.mem-master-port::system.pc.com_1.pio           87                       # Cumulative packet size per connected master and slave (bytes)
system.iobus.pkt_size_system.ruby.l1_cntrl2.sequencer.mem-master-port::system.ruby.l1_cntrl1.sequencer.pio-slave-port            4                       # Cumulative packet size per connected master and slave (bytes)
system.iobus.pkt_size_system.ruby.l1_cntrl2.sequencer.mem-master-port::system.ruby.l1_cntrl2.sequencer.pio-slave-port          908                       # Cumulative packet size per connected master and slave (bytes)
system.iobus.pkt_size_system.ruby.l1_cntrl2.sequencer.mem-master-port::system.ruby.l1_cntrl3.sequencer.pio-slave-port            4                       # Cumulative packet size per connected master and slave (bytes)
system.iobus.pkt_size_system.ruby.l1_cntrl2.sequencer.mem-master-port::total         1359                       # Cumulative packet size per connected master and slave (bytes)
system.iobus.pkt_size_system.ruby.l1_cntrl3.sequencer.mem-master-port::system.pc.south_bridge.ide.pio          330                       # Cumulative packet size per connected master and slave (bytes)
system.iobus.pkt_size_system.ruby.l1_cntrl3.sequencer.mem-master-port::system.pc.south_bridge.io_apic.pio           16                       # Cumulative packet size per connected master and slave (bytes)
system.iobus.pkt_size_system.ruby.l1_cntrl3.sequencer.mem-master-port::system.ruby.l1_cntrl0.sequencer.pio-slave-port            4                       # Cumulative packet size per connected master and slave (bytes)
system.iobus.pkt_size_system.ruby.l1_cntrl3.sequencer.mem-master-port::system.ruby.l1_cntrl1.sequencer.pio-slave-port            4                       # Cumulative packet size per connected master and slave (bytes)
system.iobus.pkt_size_system.ruby.l1_cntrl3.sequencer.mem-master-port::system.ruby.l1_cntrl2.sequencer.pio-slave-port            4                       # Cumulative packet size per connected master and slave (bytes)
system.iobus.pkt_size_system.ruby.l1_cntrl3.sequencer.mem-master-port::system.ruby.l1_cntrl3.sequencer.pio-slave-port          916                       # Cumulative packet size per connected master and slave (bytes)
system.iobus.pkt_size_system.ruby.l1_cntrl3.sequencer.mem-master-port::total         1274                       # Cumulative packet size per connected master and slave (bytes)
system.iobus.pkt_size::total                     5646                       # Cumulative packet size per connected master and slave (bytes)
system.iobus.reqLayer2.occupancy              2358000                       # Layer occupancy (ticks)
system.iobus.reqLayer2.utilization                0.0                       # Layer utilization (%)
system.iobus.reqLayer8.occupancy                19997                       # Layer occupancy (ticks)
system.iobus.reqLayer8.utilization                0.0                       # Layer utilization (%)
system.iobus.reqLayer12.occupancy              113500                       # Layer occupancy (ticks)
system.iobus.reqLayer12.utilization               0.0                       # Layer utilization (%)
system.iobus.reqLayer17.occupancy              669769                       # Layer occupancy (ticks)
system.iobus.reqLayer17.utilization               0.0                       # Layer utilization (%)
system.iobus.reqLayer18.occupancy              616984                       # Layer occupancy (ticks)
system.iobus.reqLayer18.utilization               0.0                       # Layer utilization (%)
system.iobus.reqLayer19.occupancy              605485                       # Layer occupancy (ticks)
system.iobus.reqLayer19.utilization               0.0                       # Layer utilization (%)
system.iobus.reqLayer20.occupancy              606983                       # Layer occupancy (ticks)
system.iobus.reqLayer20.utilization               0.0                       # Layer utilization (%)
system.iobus.respLayer0.occupancy              103941                       # Layer occupancy (ticks)
system.iobus.respLayer0.utilization               0.0                       # Layer utilization (%)
system.iobus.respLayer2.occupancy              803500                       # Layer occupancy (ticks)
system.iobus.respLayer2.utilization               0.0                       # Layer utilization (%)
system.iobus.respLayer4.occupancy              929000                       # Layer occupancy (ticks)
system.iobus.respLayer4.utilization               0.0                       # Layer utilization (%)
system.iobus.respLayer6.occupancy              913500                       # Layer occupancy (ticks)
system.iobus.respLayer6.utilization               0.0                       # Layer utilization (%)
system.iobus.respLayer8.occupancy              757500                       # Layer occupancy (ticks)
system.iobus.respLayer8.utilization               0.0                       # Layer utilization (%)
system.pc.south_bridge.ide.disks.dma_read_full_pages          886                       # Number of full page size DMA reads (not PRD).
system.pc.south_bridge.ide.disks.dma_read_bytes      3629056                       # Number of bytes transfered via DMA reads (not PRD).
system.pc.south_bridge.ide.disks.dma_read_txs          886                       # Number of DMA read transactions (not PRD).
system.pc.south_bridge.ide.disks.dma_write_full_pages           37                       # Number of full page size DMA writes.
system.pc.south_bridge.ide.disks.dma_write_bytes       151552                       # Number of bytes transfered via DMA writes.
system.pc.south_bridge.ide.disks.dma_write_txs           37                       # Number of DMA write transactions.
system.ruby.clk_domain.clock                      500                       # Clock period in ticks
system.ruby.outstanding_req_hist_seqr::bucket_size            1                      
system.ruby.outstanding_req_hist_seqr::max_bucket            9                      
[...]
system.ruby.L1Cache_Controller.O.Store::total          114                      
system.ruby.L1Cache_Controller.O.L1_Replacement |         217     27.40%     27.40% |         157     19.82%     47.22% |         118     14.90%     62.12% |         300     37.88%    100.00%
system.ruby.L1Cache_Controller.O.L1_Replacement::total          792                      
system.ruby.L1Cache_Controller.O.Fwd_GETX |         599     10.67%     10.67% |        1690     30.09%     40.76% |        1373     24.45%     65.21% |        1954     34.79%    100.00%
system.ruby.L1Cache_Controller.O.Fwd_GETX::total         5616                      
system.ruby.L1Cache_Controller.O.Fwd_GETS |         245      2.73%      2.73% |        3623     40.42%     43.15% |        2812     31.37%     74.52% |        2284     25.48%    100.00%
system.ruby.L1Cache_Controller.O.Fwd_GETS::total         8964                      
system.ruby.L1Cache_Controller.M.Load    |    11862995     77.17%     77.17% |       59150      0.38%     77.56% |       90456      0.59%     78.14% |     3359800     21.86%    100.00%
system.ruby.L1Cache_Controller.M.Load::total     15372401                      
system.ruby.L1Cache_Controller.M.Store   |      115056     48.88%     48.88% |        3086      1.31%     50.19% |        6079      2.58%     52.78% |      111157     47.22%    100.00%
system.ruby.L1Cache_Controller.M.Store::total       235378                      
system.ruby.L1Cache_Controller.M.L1_Replacement |     1678773     62.20%     62.20% |        4604      0.17%     62.37% |        6599      0.24%     62.61% |     1009179     37.39%    100.00%
system.ruby.L1Cache_Controller.M.L1_Replacement::total      2699155                      
system.ruby.L1Cache_Controller.M.Fwd_GETX |         222     21.06%     21.06% |         112     10.63%     31.69% |         338     32.07%     63.76% |         382     36.24%    100.00%
system.ruby.L1Cache_Controller.M.Fwd_GETX::total         1054                      
system.ruby.L1Cache_Controller.M.Fwd_GETS |         849     13.11%     13.11% |        1844     28.47%     41.58% |        1488     22.98%     64.56% |        2295     35.44%    100.00%
system.ruby.L1Cache_Controller.M.Fwd_GETS::total         6476                      
system.ruby.L1Cache_Controller.M_W.Load  |      126401     54.83%     54.83% |        5906      2.56%     57.39% |        9499      4.12%     61.51% |       88722     38.49%    100.00%
system.ruby.L1Cache_Controller.M_W.Load::total       230528                      
system.ruby.L1Cache_Controller.M_W.Store |       11876     30.95%     30.95% |        1724      4.49%     35.45% |        2114      5.51%     40.96% |       22653     59.04%    100.00%
system.ruby.L1Cache_Controller.M_W.Store::total        38367                      
system.ruby.L1Cache_Controller.M_W.L1_Replacement |         190     37.04%     37.04% |           0      0.00%     37.04% |          55     10.72%     47.76% |         268     52.24%    100.00%
system.ruby.L1Cache_Controller.M_W.L1_Replacement::total          513                      
system.ruby.L1Cache_Controller.M_W.Fwd_GETX |           3     15.00%     15.00% |           9     45.00%     60.00% |           4     20.00%     80.00% |           4     20.00%    100.00%
system.ruby.L1Cache_Controller.M_W.Fwd_GETX::total           20                      
system.ruby.L1Cache_Controller.M_W.Fwd_GETS |          58     32.77%     32.77% |          87     49.15%     81.92% |          18     10.17%     92.09% |          14      7.91%    100.00%
system.ruby.L1Cache_Controller.M_W.Fwd_GETS::total          177                      
system.ruby.L1Cache_Controller.M_W.Use_Timeout |     1794982     61.01%     61.01% |        9525      0.32%     61.34% |       14500      0.49%     61.83% |     1122938     38.17%    100.00%
system.ruby.L1Cache_Controller.M_W.Use_Timeout::total      2941945                      
system.ruby.L1Cache_Controller.MM.Load   |    15661976     57.85%     57.85% |      568822      2.10%     59.95% |      633409      2.34%     62.29% |    10211283     37.71%    100.00%
system.ruby.L1Cache_Controller.MM.Load::total     27075490                      
system.ruby.L1Cache_Controller.MM.Store  |    19430864     59.41%     59.41% |      546712      1.67%     61.08% |      699528      2.14%     63.22% |    12032032     36.78%    100.00%
system.ruby.L1Cache_Controller.MM.Store::total     32709136                      
system.ruby.L1Cache_Controller.MM.L1_Replacement |     2540274     51.44%     51.44% |       30937      0.63%     52.07% |       27199      0.55%     52.62% |     2339515     47.38%    100.00%
system.ruby.L1Cache_Controller.MM.L1_Replacement::total      4937925                      
system.ruby.L1Cache_Controller.MM.Fwd_GETX |         351     20.42%     20.42% |         532     30.95%     51.37% |         354     20.59%     71.96% |         482     28.04%    100.00%
system.ruby.L1Cache_Controller.MM.Fwd_GETX::total         1719                      
system.ruby.L1Cache_Controller.MM.Fwd_GETS |        1791     25.52%     25.52% |        1953     27.82%     53.34% |        1562     22.25%     75.59% |        1713     24.41%    100.00%
system.ruby.L1Cache_Controller.MM.Fwd_GETS::total         7019                      
system.ruby.L1Cache_Controller.MM.Fwd_DMA |          30      9.71%      9.71% |         108     34.95%     44.66% |          87     28.16%     72.82% |          84     27.18%    100.00%
system.ruby.L1Cache_Controller.MM.Fwd_DMA::total          309                      
system.ruby.L1Cache_Controller.MM_W.Load |       13122     23.32%     23.32% |        9021     16.03%     39.35% |        2349      4.17%     43.52% |       31786     56.48%    100.00%
system.ruby.L1Cache_Controller.MM_W.Load::total        56278                      
system.ruby.L1Cache_Controller.MM_W.Store |     2485327     54.76%     54.76% |      102881      2.27%     57.03% |       82393      1.82%     58.84% |     1867797     41.16%    100.00%
system.ruby.L1Cache_Controller.MM_W.Store::total      4538398                      
system.ruby.L1Cache_Controller.MM_W.L1_Replacement |         787     70.65%     70.65% |          37      3.32%     73.97% |           0      0.00%     73.97% |         290     26.03%    100.00%
system.ruby.L1Cache_Controller.MM_W.L1_Replacement::total         1114                      
system.ruby.L1Cache_Controller.MM_W.Fwd_GETX |           6     85.71%     85.71% |           1     14.29%    100.00% |           0      0.00%    100.00% |           0      0.00%    100.00%
system.ruby.L1Cache_Controller.MM_W.Fwd_GETX::total            7                      
system.ruby.L1Cache_Controller.MM_W.Fwd_GETS |         101     35.19%     35.19% |         125     43.55%     78.75% |          35     12.20%     90.94% |          26      9.06%    100.00%
system.ruby.L1Cache_Controller.MM_W.Fwd_GETS::total          287                      
system.ruby.L1Cache_Controller.MM_W.Use_Timeout |     2427441     51.52%     51.52% |       30259      0.64%     52.17% |       23126      0.49%     52.66% |     2230454     47.34%    100.00%
system.ruby.L1Cache_Controller.MM_W.Use_Timeout::total      4711280                      
system.ruby.L1Cache_Controller.IM.Ack    |        2627     42.35%     42.35% |        1215     19.59%     61.94% |        1349     21.75%     83.69% |        1012     16.31%    100.00%
system.ruby.L1Cache_Controller.IM.Ack::total         6203                      
system.ruby.L1Cache_Controller.IM.Exclusive_Data |     2384292     63.33%     63.33% |       14521      0.39%     63.72% |       14792      0.39%     64.11% |     1351083     35.89%    100.00%
system.ruby.L1Cache_Controller.IM.Exclusive_Data::total      3764688                      
system.ruby.L1Cache_Controller.SM.Ack    |        3343     59.09%     59.09% |        1096     19.37%     78.47% |         632     11.17%     89.64% |         586     10.36%    100.00%
system.ruby.L1Cache_Controller.SM.Ack::total         5657                      
system.ruby.L1Cache_Controller.SM.Exclusive_Data |       31234      3.44%      3.44% |       13975      1.54%      4.98% |        6212      0.68%      5.66% |      856690     94.34%    100.00%
system.ruby.L1Cache_Controller.SM.Exclusive_Data::total       908111                      
system.ruby.L1Cache_Controller.OM.Own_GETX |          39     34.21%     34.21% |          39     34.21%     68.42% |           8      7.02%     75.44% |          28     24.56%    100.00%
system.ruby.L1Cache_Controller.OM.Own_GETX::total          114                      
system.ruby.L1Cache_Controller.OM.Ack    |        1203     55.93%     55.93% |         172      8.00%     63.92% |         293     13.62%     77.55% |         483     22.45%    100.00%
system.ruby.L1Cache_Controller.OM.Ack::total         2151                      
system.ruby.L1Cache_Controller.OM.All_acks |     2415565     51.69%     51.69% |       28535      0.61%     52.30% |       21012      0.45%     52.75% |     2207801     47.25%    100.00%
system.ruby.L1Cache_Controller.OM.All_acks::total      4672913                      
system.ruby.L1Cache_Controller.IS.Data   |     4118594     51.99%     51.99% |       68005      0.86%     52.85% |       71606      0.90%     53.75% |     3663693     46.25%    100.00%
system.ruby.L1Cache_Controller.IS.Data::total      7921898                      
system.ruby.L1Cache_Controller.IS.Exclusive_Data |     1806859     60.63%     60.63% |       11249      0.38%     61.00% |       16614      0.56%     61.56% |     1145591     38.44%    100.00%
system.ruby.L1Cache_Controller.IS.Exclusive_Data::total      2980313                      
system.ruby.L1Cache_Controller.SI.Load   |          10     10.75%     10.75% |           2      2.15%     12.90% |          15     16.13%     29.03% |          66     70.97%    100.00%
system.ruby.L1Cache_Controller.SI.Load::total           93                      
system.ruby.L1Cache_Controller.SI.Ifetch |           0      0.00%      0.00% |           0      0.00%      0.00% |           2    100.00%    100.00% |           0      0.00%    100.00%
system.ruby.L1Cache_Controller.SI.Ifetch::total            2                      
system.ruby.L1Cache_Controller.SI.Store  |           0      0.00%      0.00% |           0      0.00%      0.00% |           0      0.00%      0.00% |           1    100.00%    100.00%
system.ruby.L1Cache_Controller.SI.Store::total            1                      
system.ruby.L1Cache_Controller.SI.Fwd_GETS |           1    100.00%    100.00% |           0      0.00%    100.00% |           0      0.00%    100.00% |           0      0.00%    100.00%
system.ruby.L1Cache_Controller.SI.Fwd_GETS::total            1                      
system.ruby.L1Cache_Controller.SI.Writeback_Ack |     2419787     65.16%     65.16% |       43137      1.16%     66.32% |       50302      1.35%     67.68% |     1200337     32.32%    100.00%
system.ruby.L1Cache_Controller.SI.Writeback_Ack::total      3713563                      
system.ruby.L1Cache_Controller.SI.Writeback_Ack_Data |     1666978     50.60%     50.60% |        9172      0.28%     50.88% |       12554      0.38%     51.26% |     1605859     48.74%    100.00%
system.ruby.L1Cache_Controller.SI.Writeback_Ack_Data::total      3294563                      
system.ruby.L1Cache_Controller.OI.Writeback_Ack_Data |         217     27.40%     27.40% |         157     19.82%     47.22% |         118     14.90%     62.12% |         300     37.88%    100.00%
system.ruby.L1Cache_Controller.OI.Writeback_Ack_Data::total          792                      
system.ruby.L1Cache_Controller.MI.Load   |          10     15.38%     15.38% |           0      0.00%     15.38% |          13     20.00%     35.38% |          42     64.62%    100.00%
system.ruby.L1Cache_Controller.MI.Load::total           65                      
system.ruby.L1Cache_Controller.MI.Store  |           4     26.67%     26.67% |           5     33.33%     60.00% |           0      0.00%     60.00% |           6     40.00%    100.00%
system.ruby.L1Cache_Controller.MI.Store::total           15                      
system.ruby.L1Cache_Controller.MI.Writeback_Ack_Data |     4219047     55.24%     55.24% |       35541      0.47%     55.71% |       33798      0.44%     56.15% |     3348694     43.85%    100.00%
system.ruby.L1Cache_Controller.MI.Writeback_Ack_Data::total      7637080                      
system.ruby.L2Cache_Controller.L1_GETS       10902363      0.00%      0.00%
system.ruby.L2Cache_Controller.L1_GETX        4672916      0.00%      0.00%
system.ruby.L2Cache_Controller.L1_PUTO            792      0.00%      0.00%
system.ruby.L2Cache_Controller.L1_PUTX        7637080      0.00%      0.00%
system.ruby.L2Cache_Controller.L1_PUTS_only      6875734      0.00%      0.00%
system.ruby.L2Cache_Controller.L1_PUTS         132399      0.00%      0.00%
system.ruby.L2Cache_Controller.Fwd_DMA            747      0.00%      0.00%
system.ruby.L2Cache_Controller.All_Acks       4046199      0.00%      0.00%
system.ruby.L2Cache_Controller.Data           8206252      0.00%      0.00%
system.ruby.L2Cache_Controller.L1_WBCLEANDATA      3294563      0.00%      0.00%
system.ruby.L2Cache_Controller.L1_WBDIRTYDATA      7637872      0.00%      0.00%
system.ruby.L2Cache_Controller.Writeback_Ack      4044785      0.00%      0.00%
system.ruby.L2Cache_Controller.Unblock       11635461      0.00%      0.00%
system.ruby.L2Cache_Controller.Exclusive_Unblock      7653226      0.00%      0.00%
system.ruby.L2Cache_Controller.DmaAck             309      0.00%      0.00%
system.ruby.L2Cache_Controller.L2_Replacement      7271605      0.00%      0.00%
system.ruby.L2Cache_Controller.NP.L1_GETS      4160053      0.00%      0.00%
system.ruby.L2Cache_Controller.NP.L1_GETX      3103285      0.00%      0.00%
system.ruby.L2Cache_Controller.ILS.L1_GETS         9964      0.00%      0.00%
system.ruby.L2Cache_Controller.ILS.L1_GETX       880541      0.00%      0.00%
system.ruby.L2Cache_Controller.ILS.L1_PUTS_only      3281566      0.00%      0.00%
system.ruby.L2Cache_Controller.ILS.L1_PUTS        12997      0.00%      0.00%
system.ruby.L2Cache_Controller.ILX.L1_GETS        13495      0.00%      0.00%
system.ruby.L2Cache_Controller.ILX.L1_GETX         2773      0.00%      0.00%
system.ruby.L2Cache_Controller.ILX.L1_PUTX      7637080      0.00%      0.00%
system.ruby.L2Cache_Controller.ILX.Fwd_DMA          309      0.00%      0.00%
system.ruby.L2Cache_Controller.ILOX.L1_GETS         3407      0.00%      0.00%
system.ruby.L2Cache_Controller.ILOX.L1_GETX          553      0.00%      0.00%
system.ruby.L2Cache_Controller.ILOX.L1_PUTO          389      0.00%      0.00%
system.ruby.L2Cache_Controller.ILOSX.L1_GETS         5557      0.00%      0.00%
system.ruby.L2Cache_Controller.ILOSX.L1_GETX         5177      0.00%      0.00%
system.ruby.L2Cache_Controller.ILOSX.L1_PUTO          403      0.00%      0.00%
system.ruby.L2Cache_Controller.ILOSX.L1_PUTS_only         4336      0.00%      0.00%
system.ruby.L2Cache_Controller.ILOSX.L1_PUTS         3087      0.00%      0.00%
system.ruby.L2Cache_Controller.S.L1_GETS      3616254      0.00%      0.00%
system.ruby.L2Cache_Controller.S.L1_GETX        37963      0.00%      0.00%
system.ruby.L2Cache_Controller.S.L2_Replacement      3211868      0.00%      0.00%
system.ruby.L2Cache_Controller.OLSX.L1_GETS          943      0.00%      0.00%
system.ruby.L2Cache_Controller.OLSX.L1_GETX          107      0.00%      0.00%
system.ruby.L2Cache_Controller.OLSX.L1_PUTS_only          255      0.00%      0.00%
system.ruby.L2Cache_Controller.OLSX.L1_PUTS          846      0.00%      0.00%
system.ruby.L2Cache_Controller.OLSX.L2_Replacement           53      0.00%      0.00%
system.ruby.L2Cache_Controller.SLS.L1_GETS       119244      0.00%      0.00%
system.ruby.L2Cache_Controller.SLS.L1_GETX        24410      0.00%      0.00%
system.ruby.L2Cache_Controller.SLS.L1_PUTS_only      3589575      0.00%      0.00%
system.ruby.L2Cache_Controller.SLS.L1_PUTS       115464      0.00%      0.00%
system.ruby.L2Cache_Controller.SLS.L2_Replacement        14952      0.00%      0.00%
system.ruby.L2Cache_Controller.M.L1_GETS      2973294      0.00%      0.00%
system.ruby.L2Cache_Controller.M.L1_GETX       618104      0.00%      0.00%
system.ruby.L2Cache_Controller.M.Fwd_DMA          438      0.00%      0.00%
system.ruby.L2Cache_Controller.M.L2_Replacement      4044732      0.00%      0.00%
system.ruby.L2Cache_Controller.ILOXW.L1_WBDIRTYDATA          389      0.00%      0.00%
system.ruby.L2Cache_Controller.ILOXW.Unblock         4336      0.00%      0.00%
system.ruby.L2Cache_Controller.ILOSXW.L1_WBDIRTYDATA          403      0.00%      0.00%
system.ruby.L2Cache_Controller.ILOSXW.Unblock         3087      0.00%      0.00%
system.ruby.L2Cache_Controller.SLSW.L1_PUTS            3      0.00%      0.00%
system.ruby.L2Cache_Controller.SLSW.Unblock       115464      0.00%      0.00%
system.ruby.L2Cache_Controller.ILSW.L1_PUTS            2      0.00%      0.00%
system.ruby.L2Cache_Controller.ILSW.L1_WBCLEANDATA        12997      0.00%      0.00%
system.ruby.L2Cache_Controller.IW.L1_WBCLEANDATA      3281566      0.00%      0.00%
system.ruby.L2Cache_Controller.SW.Unblock      3589575      0.00%      0.00%
system.ruby.L2Cache_Controller.OXW.Unblock          255      0.00%      0.00%
system.ruby.L2Cache_Controller.OLSXW.Unblock          846      0.00%      0.00%
system.ruby.L2Cache_Controller.ILXW.L1_WBDIRTYDATA      7637080      0.00%      0.00%
system.ruby.L2Cache_Controller.IFLS.L1_PUTS_only            2      0.00%      0.00%
system.ruby.L2Cache_Controller.IFLS.Unblock         9964      0.00%      0.00%
system.ruby.L2Cache_Controller.IFLOX.Unblock         3407      0.00%      0.00%
system.ruby.L2Cache_Controller.IFLOX.Exclusive_Unblock          107      0.00%      0.00%
system.ruby.L2Cache_Controller.IFLOXX.L1_GETS           72      0.00%      0.00%
system.ruby.L2Cache_Controller.IFLOXX.L1_GETX            2      0.00%      0.00%
system.ruby.L2Cache_Controller.IFLOXX.Unblock         6476      0.00%      0.00%
system.ruby.L2Cache_Controller.IFLOXX.Exclusive_Unblock        10345      0.00%      0.00%
system.ruby.L2Cache_Controller.IFLOSX.Unblock         5557      0.00%      0.00%
system.ruby.L2Cache_Controller.IFLXO.L1_GETS           54      0.00%      0.00%
system.ruby.L2Cache_Controller.IFLXO.L1_GETX            1      0.00%      0.00%
system.ruby.L2Cache_Controller.IFLXO.Exclusive_Unblock         5177      0.00%      0.00%
system.ruby.L2Cache_Controller.IGS.L1_GETS           17      0.00%      0.00%
system.ruby.L2Cache_Controller.IGS.Data       4160053      0.00%      0.00%
system.ruby.L2Cache_Controller.IGS.Unblock      4160053      0.00%      0.00%
system.ruby.L2Cache_Controller.IGM.Data       3141248      0.00%      0.00%
system.ruby.L2Cache_Controller.IGMLS.Data       904951      0.00%      0.00%
system.ruby.L2Cache_Controller.IGMO.All_Acks      4046199      0.00%      0.00%
system.ruby.L2Cache_Controller.IGMO.Exclusive_Unblock      4046199      0.00%      0.00%
system.ruby.L2Cache_Controller.MM.Exclusive_Unblock       618104      0.00%      0.00%
system.ruby.L2Cache_Controller.SS.L1_GETS            4      0.00%      0.00%
system.ruby.L2Cache_Controller.SS.Unblock      3616254      0.00%      0.00%
system.ruby.L2Cache_Controller.OO.Exclusive_Unblock      2973294      0.00%      0.00%
system.ruby.L2Cache_Controller.OLSXS.Unblock          943      0.00%      0.00%
system.ruby.L2Cache_Controller.SLSS.L1_GETS            5      0.00%      0.00%
system.ruby.L2Cache_Controller.SLSS.Unblock       119244      0.00%      0.00%
system.ruby.L2Cache_Controller.MI.Writeback_Ack      4044732      0.00%      0.00%
system.ruby.L2Cache_Controller.OLSI.Writeback_Ack           53      0.00%      0.00%
system.ruby.L2Cache_Controller.ILXD.DmaAck          309      0.00%      0.00%

---------- End Simulation Statistics   ----------
