
---------- Begin Simulation Statistics ----------
sim_seconds                                  2.906032                       # Number of seconds simulated
sim_ticks                                2906031861500                       # Number of ticks simulated
final_tick                               55811029875001                       # Number of ticks from beginning of simulation (restored from checkpoints and never reset)
sim_freq                                 1000000000000                       # Frequency of simulated ticks
host_inst_rate                                 138337                       # Simulator instruction rate (inst/s)
host_op_rate                                   231853                       # Simulator op (including micro ops) rate (op/s)
host_tick_rate                              262141571                       # Simulator tick rate (ticks/s)
host_mem_usage                                1942332                       # Number of bytes of host memory used
host_seconds                                 11085.73                       # Real time elapsed on the host
sim_insts                                  1533563191                       # Number of instructions simulated
sim_ops                                    2570259066                       # Number of ops (including micro ops) simulated
system.voltage_domain.voltage                       1                       # Voltage in Volts
system.clk_domain.clock                          1000                       # Clock period in ticks
system.mem_ctrls.bytes_read::ruby.dir_cntrl0     10570688                       # Number of bytes read from this memory
system.mem_ctrls.bytes_read::total           10570688                       # Number of bytes read from this memory
system.mem_ctrls.bytes_written::ruby.dir_cntrl0       986944                       # Number of bytes written to this memory
system.mem_ctrls.bytes_written::total          986944                       # Number of bytes written to this memory
system.mem_ctrls.num_reads::ruby.dir_cntrl0       165167                       # Number of read requests responded to by this memory
system.mem_ctrls.num_reads::total              165167                       # Number of read requests responded to by this memory
system.mem_ctrls.num_writes::ruby.dir_cntrl0        15421                       # Number of write requests responded to by this memory
system.mem_ctrls.num_writes::total              15421                       # Number of write requests responded to by this memory
system.mem_ctrls.bw_read::ruby.dir_cntrl0      3637499                       # Total read bandwidth from this memory (bytes/s)
system.mem_ctrls.bw_read::total               3637499                       # Total read bandwidth from this memory (bytes/s)
system.mem_ctrls.bw_write::ruby.dir_cntrl0       339619                       # Write bandwidth from this memory (bytes/s)
system.mem_ctrls.bw_write::total               339619                       # Write bandwidth from this memory (bytes/s)
system.mem_ctrls.bw_total::ruby.dir_cntrl0      3977118                       # Total bandwidth to/from this memory (bytes/s)
system.mem_ctrls.bw_total::total              3977118                       # Total bandwidth to/from this memory (bytes/s)
system.mem_ctrls.readReqs                      165167                       # Number of read requests accepted
system.mem_ctrls.writeReqs                      15421                       # Number of write requests accepted
system.mem_ctrls.readBursts                    165167                       # Number of DRAM read bursts, including those serviced by the write queue
system.mem_ctrls.writeBursts                    15421                       # Number of DRAM write bursts, including those merged in the write queue
system.mem_ctrls.bytesReadDRAM               10568256                       # Total number of bytes read from DRAM
system.mem_ctrls.bytesReadWrQ                    2432                       # Total number of bytes read from write queue
system.mem_ctrls.bytesWritten                  985472                       # Total number of bytes written to DRAM
system.mem_ctrls.bytesReadSys                10570688                       # Total read bytes from the system interface side
system.mem_ctrls.bytesWrittenSys               986944                       # Total written bytes from the system interface side
system.mem_ctrls.servicedByWrQ                     38                       # Number of DRAM read bursts serviced by the write queue
system.mem_ctrls.mergedWrBursts                     0                       # Number of DRAM write bursts merged with an existing one
system.mem_ctrls.neitherReadNorWriteReqs            0                       # Number of requests that are neither read nor write
system.mem_ctrls.perBankRdBursts::0             10193                       # Per bank write bursts
system.mem_ctrls.perBankRdBursts::1             10333                       # Per bank write bursts
system.mem_ctrls.perBankRdBursts::2             10293                       # Per bank write bursts
system.mem_ctrls.perBankRdBursts::3              9830                       # Per bank write bursts
system.mem_ctrls.perBankRdBursts::4             11452                       # Per bank write bursts
system.mem_ctrls.perBankRdBursts::5             10666                       # Per bank write bursts
system.mem_ctrls.perBankRdBursts::6             10652                       # Per bank write bursts
system.mem_ctrls.perBankRdBursts::7             11762                       # Per bank write bursts
system.mem_ctrls.perBankRdBursts::8             10216                       # Per bank write bursts
system.mem_ctrls.perBankRdBursts::9             11078                       # Per bank write bursts
system.mem_ctrls.perBankRdBursts::10             9819                       # Per bank write bursts
system.mem_ctrls.perBankRdBursts::11             9513                       # Per bank write bursts
system.mem_ctrls.perBankRdBursts::12             9497                       # Per bank write bursts
system.mem_ctrls.perBankRdBursts::13             9155                       # Per bank write bursts
system.mem_ctrls.perBankRdBursts::14            10589                       # Per bank write bursts
system.mem_ctrls.perBankRdBursts::15            10081                       # Per bank write bursts
system.mem_ctrls.perBankWrBursts::0              1108                       # Per bank write bursts
system.mem_ctrls.perBankWrBursts::1              1113                       # Per bank write bursts
system.mem_ctrls.perBankWrBursts::2              1209                       # Per bank write bursts
system.mem_ctrls.perBankWrBursts::3               694                       # Per bank write bursts
system.mem_ctrls.perBankWrBursts::4              1107                       # Per bank write bursts
system.mem_ctrls.perBankWrBursts::5              1019                       # Per bank write bursts
system.mem_ctrls.perBankWrBursts::6               905                       # Per bank write bursts
system.mem_ctrls.perBankWrBursts::7              1105                       # Per bank write bursts
system.mem_ctrls.perBankWrBursts::8               653                       # Per bank write bursts
system.mem_ctrls.perBankWrBursts::9               992                       # Per bank write bursts
system.mem_ctrls.perBankWrBursts::10              615                       # Per bank write bursts
system.mem_ctrls.perBankWrBursts::11              599                       # Per bank write bursts
system.mem_ctrls.perBankWrBursts::12              864                       # Per bank write bursts
system.mem_ctrls.perBankWrBursts::13              862                       # Per bank write bursts
system.mem_ctrls.perBankWrBursts::14             1403                       # Per bank write bursts
system.mem_ctrls.perBankWrBursts::15             1150                       # Per bank write bursts
system.mem_ctrls.numRdRetry                         0                       # Number of times read queue was full causing retry
system.mem_ctrls.numWrRetry                         0                       # Number of times write queue was full causing retry
system.mem_ctrls.totGap                  2906031790500                       # Total gap between requests
system.mem_ctrls.readPktSize::0                     0                       # Read request sizes (log2)
system.mem_ctrls.readPktSize::1                     0                       # Read request sizes (log2)
system.mem_ctrls.readPktSize::2                     0                       # Read request sizes (log2)
system.mem_ctrls.readPktSize::3                     0                       # Read request sizes (log2)
system.mem_ctrls.readPktSize::4                     0                       # Read request sizes (log2)
system.mem_ctrls.readPktSize::5                     0                       # Read request sizes (log2)
system.mem_ctrls.readPktSize::6                165167                       # Read request sizes (log2)
system.mem_ctrls.writePktSize::0                    0                       # Write request sizes (log2)
system.mem_ctrls.writePktSize::1                    0                       # Write request sizes (log2)
system.mem_ctrls.writePktSize::2                    0                       # Write request sizes (log2)
system.mem_ctrls.writePktSize::3                    0                       # Write request sizes (log2)
system.mem_ctrls.writePktSize::4                    0                       # Write request sizes (log2)
system.mem_ctrls.writePktSize::5                    0                       # Write request sizes (log2)
system.mem_ctrls.writePktSize::6                15421                       # Write request sizes (log2)
system.mem_ctrls.rdQLenPdf::0                  162928                       # What read queue length does an incoming req see
system.mem_ctrls.rdQLenPdf::1                    2190                       # What read queue length does an incoming req see
system.mem_ctrls.rdQLenPdf::2                      11                       # What read queue length does an incoming req see
system.mem_ctrls.rdQLenPdf::3                       0                       # What read queue length does an incoming req see
system.mem_ctrls.rdQLenPdf::4                       0                       # What read queue length does an incoming req see
system.mem_ctrls.rdQLenPdf::5                       0                       # What read queue length does an incoming req see
system.mem_ctrls.rdQLenPdf::6                       0                       # What read queue length does an incoming req see
system.mem_ctrls.rdQLenPdf::7                       0                       # What read queue length does an incoming req see
system.mem_ctrls.rdQLenPdf::8                       0                       # What read queue length does an incoming req see
system.mem_ctrls.rdQLenPdf::9                       0                       # What read queue length does an incoming req see
system.mem_ctrls.rdQLenPdf::10                      0                       # What read queue length does an incoming req see
system.mem_ctrls.rdQLenPdf::11                      0                       # What read queue length does an incoming req see
system.mem_ctrls.rdQLenPdf::12                      0                       # What read queue length does an incoming req see
system.mem_ctrls.rdQLenPdf::13                      0                       # What read queue length does an incoming req see
system.mem_ctrls.rdQLenPdf::14                      0                       # What read queue length does an incoming req see
system.mem_ctrls.rdQLenPdf::15                      0                       # What read queue length does an incoming req see
system.mem_ctrls.rdQLenPdf::16                      0                       # What read queue length does an incoming req see
system.mem_ctrls.rdQLenPdf::17                      0                       # What read queue length does an incoming req see
system.mem_ctrls.rdQLenPdf::18                      0                       # What read queue length does an incoming req see
system.mem_ctrls.rdQLenPdf::19                      0                       # What read queue length does an incoming req see
system.mem_ctrls.rdQLenPdf::20                      0                       # What read queue length does an incoming req see
system.mem_ctrls.rdQLenPdf::21                      0                       # What read queue length does an incoming req see
system.mem_ctrls.rdQLenPdf::22                      0                       # What read queue length does an incoming req see
system.mem_ctrls.rdQLenPdf::23                      0                       # What read queue length does an incoming req see
system.mem_ctrls.rdQLenPdf::24                      0                       # What read queue length does an incoming req see
system.mem_ctrls.rdQLenPdf::25                      0                       # What read queue length does an incoming req see
system.mem_ctrls.rdQLenPdf::26                      0                       # What read queue length does an incoming req see
system.mem_ctrls.rdQLenPdf::27                      0                       # What read queue length does an incoming req see
system.mem_ctrls.rdQLenPdf::28                      0                       # What read queue length does an incoming req see
system.mem_ctrls.rdQLenPdf::29                      0                       # What read queue length does an incoming req see
system.mem_ctrls.rdQLenPdf::30                      0                       # What read queue length does an incoming req see
system.mem_ctrls.rdQLenPdf::31                      0                       # What read queue length does an incoming req see
system.mem_ctrls.wrQLenPdf::0                       0                       # What write queue length does an incoming req see
system.mem_ctrls.wrQLenPdf::1                       0                       # What write queue length does an incoming req see
system.mem_ctrls.wrQLenPdf::2                       0                       # What write queue length does an incoming req see
system.mem_ctrls.wrQLenPdf::3                       0                       # What write queue length does an incoming req see
system.mem_ctrls.wrQLenPdf::4                       0                       # What write queue length does an incoming req see
system.mem_ctrls.wrQLenPdf::5                       0                       # What write queue length does an incoming req see
system.mem_ctrls.wrQLenPdf::6                       1                       # What write queue length does an incoming req see
system.mem_ctrls.wrQLenPdf::7                       1                       # What write queue length does an incoming req see
system.mem_ctrls.wrQLenPdf::8                       1                       # What write queue length does an incoming req see
system.mem_ctrls.wrQLenPdf::9                       1                       # What write queue length does an incoming req see
system.mem_ctrls.wrQLenPdf::10                      1                       # What write queue length does an incoming req see
system.mem_ctrls.wrQLenPdf::11                      1                       # What write queue length does an incoming req see
system.mem_ctrls.wrQLenPdf::12                      1                       # What write queue length does an incoming req see
system.mem_ctrls.wrQLenPdf::13                      1                       # What write queue length does an incoming req see
system.mem_ctrls.wrQLenPdf::14                      1                       # What write queue length does an incoming req see
system.mem_ctrls.wrQLenPdf::15                    629                       # What write queue length does an incoming req see
system.mem_ctrls.wrQLenPdf::16                    672                       # What write queue length does an incoming req see
system.mem_ctrls.wrQLenPdf::17                    841                       # What write queue length does an incoming req see
system.mem_ctrls.wrQLenPdf::18                    880                       # What write queue length does an incoming req see
system.mem_ctrls.wrQLenPdf::19                    866                       # What write queue length does an incoming req see
system.mem_ctrls.wrQLenPdf::20                    914                       # What write queue length does an incoming req see
system.mem_ctrls.wrQLenPdf::21                    889                       # What write queue length does an incoming req see
system.mem_ctrls.wrQLenPdf::22                    924                       # What write queue length does an incoming req see
system.mem_ctrls.wrQLenPdf::23                    892                       # What write queue length does an incoming req see
system.mem_ctrls.wrQLenPdf::24                    931                       # What write queue length does an incoming req see
system.mem_ctrls.wrQLenPdf::25                    877                       # What write queue length does an incoming req see
system.mem_ctrls.wrQLenPdf::26                    883                       # What write queue length does an incoming req see
system.mem_ctrls.wrQLenPdf::27                    866                       # What write queue length does an incoming req see
system.mem_ctrls.wrQLenPdf::28                    872                       # What write queue length does an incoming req see
system.mem_ctrls.wrQLenPdf::29                    846                       # What write queue length does an incoming req see
system.mem_ctrls.wrQLenPdf::30                    854                       # What write queue length does an incoming req see
system.mem_ctrls.wrQLenPdf::31                    837                       # What write queue length does an incoming req see
system.mem_ctrls.wrQLenPdf::32                    834                       # What write queue length does an incoming req see
system.mem_ctrls.wrQLenPdf::33                     16                       # What write queue length does an incoming req see
system.mem_ctrls.wrQLenPdf::34                     12                       # What write queue length does an incoming req see
system.mem_ctrls.wrQLenPdf::35                     12                       # What write queue length does an incoming req see
system.mem_ctrls.wrQLenPdf::36                     13                       # What write queue length does an incoming req see
system.mem_ctrls.wrQLenPdf::37                     10                       # What write queue length does an incoming req see
system.mem_ctrls.wrQLenPdf::38                      8                       # What write queue length does an incoming req see
system.mem_ctrls.wrQLenPdf::39                      6                       # What write queue length does an incoming req see
system.mem_ctrls.wrQLenPdf::40                      7                       # What write queue length does an incoming req see
system.mem_ctrls.wrQLenPdf::41                      4                       # What write queue length does an incoming req see
system.mem_ctrls.wrQLenPdf::42                      5                       # What write queue length does an incoming req see
system.mem_ctrls.wrQLenPdf::43                      3                       # What write queue length does an incoming req see
system.mem_ctrls.wrQLenPdf::44                      3                       # What write queue length does an incoming req see
system.mem_ctrls.wrQLenPdf::45                      3                       # What write queue length does an incoming req see
system.mem_ctrls.wrQLenPdf::46                      1                       # What write queue length does an incoming req see
system.mem_ctrls.wrQLenPdf::47                      1                       # What write queue length does an incoming req see
system.mem_ctrls.wrQLenPdf::48                      1                       # What write queue length does an incoming req see
system.mem_ctrls.wrQLenPdf::49                      0                       # What write queue length does an incoming req see
system.mem_ctrls.wrQLenPdf::50                      0                       # What write queue length does an incoming req see
system.mem_ctrls.wrQLenPdf::51                      0                       # What write queue length does an incoming req see
system.mem_ctrls.wrQLenPdf::52                      0                       # What write queue length does an incoming req see
system.mem_ctrls.wrQLenPdf::53                      0                       # What write queue length does an incoming req see
system.mem_ctrls.wrQLenPdf::54                      0                       # What write queue length does an incoming req see
system.mem_ctrls.wrQLenPdf::55                      0                       # What write queue length does an incoming req see
system.mem_ctrls.wrQLenPdf::56                      0                       # What write queue length does an incoming req see
system.mem_ctrls.wrQLenPdf::57                      0                       # What write queue length does an incoming req see
system.mem_ctrls.wrQLenPdf::58                      0                       # What write queue length does an incoming req see
system.mem_ctrls.wrQLenPdf::59                      0                       # What write queue length does an incoming req see
system.mem_ctrls.wrQLenPdf::60                      0                       # What write queue length does an incoming req see
system.mem_ctrls.wrQLenPdf::61                      0                       # What write queue length does an incoming req see
system.mem_ctrls.wrQLenPdf::62                      0                       # What write queue length does an incoming req see
system.mem_ctrls.wrQLenPdf::63                      0                       # What write queue length does an incoming req see
system.mem_ctrls.bytesPerActivate::samples        39524                       # Bytes accessed per row activation
system.mem_ctrls.bytesPerActivate::mean    292.323449                       # Bytes accessed per row activation
system.mem_ctrls.bytesPerActivate::gmean   161.583182                       # Bytes accessed per row activation
system.mem_ctrls.bytesPerActivate::stdev   349.410158                       # Bytes accessed per row activation
system.mem_ctrls.bytesPerActivate::0-127        16057     40.63%     40.63% # Bytes accessed per row activation
system.mem_ctrls.bytesPerActivate::128-255        11912     30.14%     70.76% # Bytes accessed per row activation
system.mem_ctrls.bytesPerActivate::256-383         2193      5.55%     76.31% # Bytes accessed per row activation
system.mem_ctrls.bytesPerActivate::384-511         1182      2.99%     79.30% # Bytes accessed per row activation
system.mem_ctrls.bytesPerActivate::512-639          714      1.81%     81.11% # Bytes accessed per row activation
system.mem_ctrls.bytesPerActivate::640-767          485      1.23%     82.34% # Bytes accessed per row activation
system.mem_ctrls.bytesPerActivate::768-895          410      1.04%     83.37% # Bytes accessed per row activation
system.mem_ctrls.bytesPerActivate::896-1023          396      1.00%     84.38% # Bytes accessed per row activation
system.mem_ctrls.bytesPerActivate::1024-1151         6175     15.62%    100.00% # Bytes accessed per row activation
system.mem_ctrls.bytesPerActivate::total        39524                       # Bytes accessed per row activation
system.mem_ctrls.rdPerTurnAround::samples          816                       # Reads before turning the bus around for writes
system.mem_ctrls.rdPerTurnAround::mean     225.861520                       # Reads before turning the bus around for writes
system.mem_ctrls.rdPerTurnAround::stdev    999.367649                       # Reads before turning the bus around for writes
system.mem_ctrls.rdPerTurnAround::0-1023          790     96.81%     96.81% # Reads before turning the bus around for writes
system.mem_ctrls.rdPerTurnAround::1024-2047            5      0.61%     97.43% # Reads before turning the bus around for writes
system.mem_ctrls.rdPerTurnAround::2048-3071            7      0.86%     98.28% # Reads before turning the bus around for writes
system.mem_ctrls.rdPerTurnAround::3072-4095            2      0.25%     98.53% # Reads before turning the bus around for writes
system.mem_ctrls.rdPerTurnAround::4096-5119            7      0.86%     99.39% # Reads before turning the bus around for writes
system.mem_ctrls.rdPerTurnAround::5120-6143            1      0.12%     99.51% # Reads before turning the bus around for writes
system.mem_ctrls.rdPerTurnAround::6144-7167            3      0.37%     99.88% # Reads before turning the bus around for writes
system.mem_ctrls.rdPerTurnAround::21504-22527            1      0.12%    100.00% # Reads before turning the bus around for writes
system.mem_ctrls.rdPerTurnAround::total           816                       # Reads before turning the bus around for writes
system.mem_ctrls.wrPerTurnAround::samples          816                       # Writes before turning the bus around for reads
system.mem_ctrls.wrPerTurnAround::mean      18.870098                       # Writes before turning the bus around for reads
system.mem_ctrls.wrPerTurnAround::gmean     18.516851                       # Writes before turning the bus around for reads
system.mem_ctrls.wrPerTurnAround::stdev      4.452921                       # Writes before turning the bus around for reads
system.mem_ctrls.wrPerTurnAround::16              174     21.32%     21.32% # Writes before turning the bus around for reads
system.mem_ctrls.wrPerTurnAround::17                5      0.61%     21.94% # Writes before turning the bus around for reads
system.mem_ctrls.wrPerTurnAround::18              518     63.48%     85.42% # Writes before turning the bus around for reads
system.mem_ctrls.wrPerTurnAround::19               21      2.57%     87.99% # Writes before turning the bus around for reads
system.mem_ctrls.wrPerTurnAround::20                6      0.74%     88.73% # Writes before turning the bus around for reads
system.mem_ctrls.wrPerTurnAround::21                5      0.61%     89.34% # Writes before turning the bus around for reads
system.mem_ctrls.wrPerTurnAround::22                1      0.12%     89.46% # Writes before turning the bus around for reads
system.mem_ctrls.wrPerTurnAround::23               25      3.06%     92.52% # Writes before turning the bus around for reads
system.mem_ctrls.wrPerTurnAround::24                6      0.74%     93.26% # Writes before turning the bus around for reads
system.mem_ctrls.wrPerTurnAround::25                4      0.49%     93.75% # Writes before turning the bus around for reads
system.mem_ctrls.wrPerTurnAround::26                2      0.25%     94.00% # Writes before turning the bus around for reads
system.mem_ctrls.wrPerTurnAround::27                1      0.12%     94.12% # Writes before turning the bus around for reads
system.mem_ctrls.wrPerTurnAround::28                2      0.25%     94.36% # Writes before turning the bus around for reads
system.mem_ctrls.wrPerTurnAround::29                6      0.74%     95.10% # Writes before turning the bus around for reads
system.mem_ctrls.wrPerTurnAround::30                4      0.49%     95.59% # Writes before turning the bus around for reads
system.mem_ctrls.wrPerTurnAround::31                2      0.25%     95.83% # Writes before turning the bus around for reads
system.mem_ctrls.wrPerTurnAround::32                3      0.37%     96.20% # Writes before turning the bus around for reads
system.mem_ctrls.wrPerTurnAround::33                1      0.12%     96.32% # Writes before turning the bus around for reads
system.mem_ctrls.wrPerTurnAround::34                6      0.74%     97.06% # Writes before turning the bus around for reads
system.mem_ctrls.wrPerTurnAround::35               17      2.08%     99.14% # Writes before turning the bus around for reads
system.mem_ctrls.wrPerTurnAround::41                2      0.25%     99.39% # Writes before turning the bus around for reads
system.mem_ctrls.wrPerTurnAround::43                1      0.12%     99.51% # Writes before turning the bus around for reads
system.mem_ctrls.wrPerTurnAround::45                2      0.25%     99.75% # Writes before turning the bus around for reads
system.mem_ctrls.wrPerTurnAround::49                1      0.12%     99.88% # Writes before turning the bus around for reads
system.mem_ctrls.wrPerTurnAround::57                1      0.12%    100.00% # Writes before turning the bus around for reads
system.mem_ctrls.wrPerTurnAround::total           816                       # Writes before turning the bus around for reads
system.mem_ctrls.totQLat                    906540226                       # Total ticks spent queuing
system.mem_ctrls.totMemAccLat              4002708976                       # Total ticks spent from burst creation until serviced by the DRAM
system.mem_ctrls.totBusLat                  825645000                       # Total ticks spent in databus transfers
system.mem_ctrls.avgQLat                      5489.89                       # Average queueing delay per DRAM burst
system.mem_ctrls.avgBusLat                    5000.00                       # Average bus latency per DRAM burst
system.mem_ctrls.avgMemAccLat                24239.89                       # Average memory access latency per DRAM burst
system.mem_ctrls.avgRdBW                         3.64                       # Average DRAM read bandwidth in MiByte/s
system.mem_ctrls.avgWrBW                         0.34                       # Average achieved write bandwidth in MiByte/s
system.mem_ctrls.avgRdBWSys                      3.64                       # Average system read bandwidth in MiByte/s
system.mem_ctrls.avgWrBWSys                      0.34                       # Average system write bandwidth in MiByte/s
system.mem_ctrls.peakBW                      12800.00                       # Theoretical peak bandwidth in MiByte/s
system.mem_ctrls.busUtil                         0.03                       # Data bus utilization in percentage
system.mem_ctrls.busUtilRead                     0.03                       # Data bus utilization in percentage for reads
system.mem_ctrls.busUtilWrite                    0.00                       # Data bus utilization in percentage for writes
system.mem_ctrls.avgRdQLen                       1.00                       # Average read queue length when enqueuing
system.mem_ctrls.avgWrQLen                      24.76                       # Average write queue length when enqueuing
system.mem_ctrls.readRowHits                   134435                       # Number of row buffer hits during reads
system.mem_ctrls.writeRowHits                    6568                       # Number of row buffer hits during writes
system.mem_ctrls.readRowHitRate                 81.41                       # Row buffer hit rate for reads
system.mem_ctrls.writeRowHitRate                42.59                       # Row buffer hit rate for writes
system.mem_ctrls.avgGap                   16092053.68                       # Average gap between requests
system.mem_ctrls.pageHitRate                    78.10                       # Row buffer hit rate, read and write combined
system.mem_ctrls_0.actEnergy                169041600                       # Energy for activate commands per rank (pJ)
system.mem_ctrls_0.preEnergy                 92235000                       # Energy for precharge commands per rank (pJ)
system.mem_ctrls_0.readEnergy               738730200                       # Energy for read commands per rank (pJ)
system.mem_ctrls_0.writeEnergy               53524800                       # Energy for write commands per rank (pJ)
system.mem_ctrls_0.refreshEnergy         190069214400                       # Energy for refresh commands per rank (pJ)
system.mem_ctrls_0.actBackEnergy          87563189385                       # Energy for active background per rank (pJ)
system.mem_ctrls_0.preBackEnergy         1669210186500                       # Energy for precharge background per rank (pJ)
system.mem_ctrls_0.totalEnergy           1947896121885                       # Total energy per rank (pJ)
system.mem_ctrls_0.averagePower            669.372442                       # Core power per rank (mW)
system.mem_ctrls_0.memoryStateTime::IDLE 2775027139000                       # Time in different power states
system.mem_ctrls_0.memoryStateTime::REF   97038760000                       # Time in different power states
system.mem_ctrls_0.memoryStateTime::PRE_PDN            0                       # Time in different power states
system.mem_ctrls_0.memoryStateTime::ACT   33960833500                       # Time in different power states
system.mem_ctrls_0.memoryStateTime::ACT_PDN            0                       # Time in different power states
system.mem_ctrls_1.actEnergy                162630720                       # Energy for activate commands per rank (pJ)
system.mem_ctrls_1.preEnergy                 88737000                       # Energy for precharge commands per rank (pJ)
system.mem_ctrls_1.readEnergy               699823800                       # Energy for read commands per rank (pJ)
system.mem_ctrls_1.writeEnergy               46254240                       # Energy for write commands per rank (pJ)
system.mem_ctrls_1.refreshEnergy         190069214400                       # Energy for refresh commands per rank (pJ)
system.mem_ctrls_1.actBackEnergy          87648075495                       # Energy for active background per rank (pJ)
system.mem_ctrls_1.preBackEnergy         1669135724250                       # Energy for precharge background per rank (pJ)
system.mem_ctrls_1.totalEnergy           1947850459905                       # Total energy per rank (pJ)
system.mem_ctrls_1.averagePower            669.356752                       # Core power per rank (mW)
system.mem_ctrls_1.memoryStateTime::IDLE 2775200938000                       # Time in different power states
system.mem_ctrls_1.memoryStateTime::REF   97038760000                       # Time in different power states
system.mem_ctrls_1.memoryStateTime::PRE_PDN            0                       # Time in different power states
system.mem_ctrls_1.memoryStateTime::ACT   33791244500                       # Time in different power states
system.mem_ctrls_1.memoryStateTime::ACT_PDN            0                       # Time in different power states
system.cpu_voltage_domain.voltage                   1                       # Voltage in Volts
system.cpu_clk_domain.clock                       500                       # Clock period in ticks
system.cpu0.apic_clk_domain.clock                8000                       # Clock period in ticks
system.cpu0.numCycles                      5812063723                       # number of cpu cycles simulated
system.cpu0.numWorkItemsStarted                     0                       # number of work items this cpu started
system.cpu0.numWorkItemsCompleted                   0                       # number of work items this cpu completed
system.cpu0.kern.inst.arm                           0                       # number of arm instructions executed
system.cpu0.kern.inst.quiesce                       0                       # number of quiesce instructions executed
system.cpu0.committedInsts                 1476241363                       # Number of instructions committed
system.cpu0.committedOps                   2466836098                       # Number of ops (including micro ops) committed
system.cpu0.num_int_alu_accesses           1881716758                       # Number of integer alu accesses
system.cpu0.num_fp_alu_accesses             945947405                       # Number of float alu accesses
system.cpu0.num_func_calls                   34359791                       # number of times a function call or return occured
system.cpu0.num_conditional_control_insts    165754984                       # number of instructions that are conditional controls
system.cpu0.num_int_insts                  1881716758                       # number of integer instructions
system.cpu0.num_fp_insts                    945947405                       # number of float instructions
system.cpu0.num_int_register_reads         3990333791                       # number of times the integer registers were read
system.cpu0.num_int_register_writes        1279428763                       # number of times the integer registers were written
system.cpu0.num_fp_register_reads          1502755339                       # number of times the floating registers were read
system.cpu0.num_fp_register_writes          775539812                       # number of times the floating registers were written
system.cpu0.num_cc_register_reads          1393788696                       # number of times the CC registers were read
system.cpu0.num_cc_register_writes          528982493                       # number of times the CC registers were written
system.cpu0.num_mem_refs                    626050422                       # number of memory refs
system.cpu0.num_load_insts                  465634838                       # Number of load instructions
system.cpu0.num_store_insts                 160415584                       # Number of store instructions
system.cpu0.num_idle_cycles              171531308.001941                       # Number of idle cycles
system.cpu0.num_busy_cycles              5640532414.998059                       # Number of busy cycles
system.cpu0.not_idle_fraction                0.970487                       # Percentage of non-idle cycles
system.cpu0.idle_fraction                    0.029513                       # Percentage of idle cycles
system.cpu0.Branches                        223581156                       # Number of branches fetched
system.cpu0.op_class::No_OpClass              3266967      0.13%      0.13% # Class of executed instruction
system.cpu0.op_class::IntAlu               1423032391     57.69%     57.82% # Class of executed instruction
system.cpu0.op_class::IntMult                 4498895      0.18%     58.00% # Class of executed instruction
system.cpu0.op_class::IntDiv                 18800510      0.76%     58.76% # Class of executed instruction
system.cpu0.op_class::FloatAdd              390176768     15.82%     74.58% # Class of executed instruction
system.cpu0.op_class::FloatCmp                      0      0.00%     74.58% # Class of executed instruction
system.cpu0.op_class::FloatCvt                      0      0.00%     74.58% # Class of executed instruction
system.cpu0.op_class::FloatMult                     0      0.00%     74.58% # Class of executed instruction
system.cpu0.op_class::FloatDiv                1010280      0.04%     74.62% # Class of executed instruction
system.cpu0.op_class::FloatSqrt                     0      0.00%     74.62% # Class of executed instruction
system.cpu0.op_class::SimdAdd                       0      0.00%     74.62% # Class of executed instruction
system.cpu0.op_class::SimdAddAcc                    0      0.00%     74.62% # Class of executed instruction
system.cpu0.op_class::SimdAlu                       0      0.00%     74.62% # Class of executed instruction
system.cpu0.op_class::SimdCmp                       0      0.00%     74.62% # Class of executed instruction
system.cpu0.op_class::SimdCvt                       0      0.00%     74.62% # Class of executed instruction
system.cpu0.op_class::SimdMisc                      0      0.00%     74.62% # Class of executed instruction
system.cpu0.op_class::SimdMult                      0      0.00%     74.62% # Class of executed instruction
system.cpu0.op_class::SimdMultAcc                   0      0.00%     74.62% # Class of executed instruction
system.cpu0.op_class::SimdShift                     0      0.00%     74.62% # Class of executed instruction
system.cpu0.op_class::SimdShiftAcc                  0      0.00%     74.62% # Class of executed instruction
system.cpu0.op_class::SimdSqrt                      0      0.00%     74.62% # Class of executed instruction
system.cpu0.op_class::SimdFloatAdd                  0      0.00%     74.62% # Class of executed instruction
system.cpu0.op_class::SimdFloatAlu                  0      0.00%     74.62% # Class of executed instruction
system.cpu0.op_class::SimdFloatCmp                  0      0.00%     74.62% # Class of executed instruction
system.cpu0.op_class::SimdFloatCvt                  0      0.00%     74.62% # Class of executed instruction
system.cpu0.op_class::SimdFloatDiv                  0      0.00%     74.62% # Class of executed instruction
system.cpu0.op_class::SimdFloatMisc                 0      0.00%     74.62% # Class of executed instruction
system.cpu0.op_class::SimdFloatMult                 0      0.00%     74.62% # Class of executed instruction
system.cpu0.op_class::SimdFloatMultAcc              0      0.00%     74.62% # Class of executed instruction
system.cpu0.op_class::SimdFloatSqrt                 0      0.00%     74.62% # Class of executed instruction
system.cpu0.op_class::MemRead               465634838     18.88%     93.50% # Class of executed instruction
system.cpu0.op_class::MemWrite              160415584      6.50%    100.00% # Class of executed instruction
system.cpu0.op_class::IprAccess                     0      0.00%    100.00% # Class of executed instruction
system.cpu0.op_class::InstPrefetch                  0      0.00%    100.00% # Class of executed instruction
system.cpu0.op_class::total                2466836233                       # Class of executed instruction
system.cpu1.apic_clk_domain.clock                8000                       # Clock period in ticks
system.cpu1.numCycles                      5814077230                       # number of cpu cycles simulated
system.cpu1.numWorkItemsStarted                     0                       # number of work items this cpu started
system.cpu1.numWorkItemsCompleted                   0                       # number of work items this cpu completed
system.cpu1.kern.inst.arm                           0                       # number of arm instructions executed
system.cpu1.kern.inst.quiesce                       0                       # number of quiesce instructions executed
system.cpu1.committedInsts                    4348126                       # Number of instructions committed
system.cpu1.committedOps                      8962080                       # Number of ops (including micro ops) committed
system.cpu1.num_int_alu_accesses              8797131                       # Number of integer alu accesses
system.cpu1.num_fp_alu_accesses                     0                       # Number of float alu accesses
system.cpu1.num_func_calls                     217487                       # number of times a function call or return occured
system.cpu1.num_conditional_control_insts       752971                       # number of instructions that are conditional controls
system.cpu1.num_int_insts                     8797131                       # number of integer instructions
system.cpu1.num_fp_insts                            0                       # number of float instructions
system.cpu1.num_int_register_reads           17328132                       # number of times the integer registers were read
system.cpu1.num_int_register_writes           7251762                       # number of times the integer registers were written
system.cpu1.num_fp_register_reads                   0                       # number of times the floating registers were read
system.cpu1.num_fp_register_writes                  0                       # number of times the floating registers were written
system.cpu1.num_cc_register_reads             5645697                       # number of times the CC registers were read
system.cpu1.num_cc_register_writes            2963917                       # number of times the CC registers were written
system.cpu1.num_mem_refs                      1864491                       # number of memory refs
system.cpu1.num_load_insts                    1195659                       # Number of load instructions
system.cpu1.num_store_insts                    668832                       # Number of store instructions
system.cpu1.num_idle_cycles              5796252056.894331                       # Number of idle cycles
system.cpu1.num_busy_cycles              17825173.105669                       # Number of busy cycles
system.cpu1.not_idle_fraction                0.003066                       # Percentage of non-idle cycles
system.cpu1.idle_fraction                    0.996934                       # Percentage of idle cycles
system.cpu1.Branches                          1039774                       # Number of branches fetched
system.cpu1.op_class::No_OpClass               111148      1.24%      1.24% # Class of executed instruction
system.cpu1.op_class::IntAlu                  6938595     77.42%     78.66% # Class of executed instruction
system.cpu1.op_class::IntMult                   16433      0.18%     78.85% # Class of executed instruction
system.cpu1.op_class::IntDiv                    31416      0.35%     79.20% # Class of executed instruction
system.cpu1.op_class::FloatAdd                      0      0.00%     79.20% # Class of executed instruction
system.cpu1.op_class::FloatCmp                      0      0.00%     79.20% # Class of executed instruction
system.cpu1.op_class::FloatCvt                      0      0.00%     79.20% # Class of executed instruction
system.cpu1.op_class::FloatMult                     0      0.00%     79.20% # Class of executed instruction
system.cpu1.op_class::FloatDiv                      0      0.00%     79.20% # Class of executed instruction
system.cpu1.op_class::FloatSqrt                     0      0.00%     79.20% # Class of executed instruction
system.cpu1.op_class::SimdAdd                       0      0.00%     79.20% # Class of executed instruction
system.cpu1.op_class::SimdAddAcc                    0      0.00%     79.20% # Class of executed instruction
system.cpu1.op_class::SimdAlu                       0      0.00%     79.20% # Class of executed instruction
system.cpu1.op_class::SimdCmp                       0      0.00%     79.20% # Class of executed instruction
system.cpu1.op_class::SimdCvt                       0      0.00%     79.20% # Class of executed instruction
system.cpu1.op_class::SimdMisc                      0      0.00%     79.20% # Class of executed instruction
system.cpu1.op_class::SimdMult                      0      0.00%     79.20% # Class of executed instruction
system.cpu1.op_class::SimdMultAcc                   0      0.00%     79.20% # Class of executed instruction
system.cpu1.op_class::SimdShift                     0      0.00%     79.20% # Class of executed instruction
system.cpu1.op_class::SimdShiftAcc                  0      0.00%     79.20% # Class of executed instruction
system.cpu1.op_class::SimdSqrt                      0      0.00%     79.20% # Class of executed instruction
system.cpu1.op_class::SimdFloatAdd                  0      0.00%     79.20% # Class of executed instruction
system.cpu1.op_class::SimdFloatAlu                  0      0.00%     79.20% # Class of executed instruction
system.cpu1.op_class::SimdFloatCmp                  0      0.00%     79.20% # Class of executed instruction
system.cpu1.op_class::SimdFloatCvt                  0      0.00%     79.20% # Class of executed instruction
system.cpu1.op_class::SimdFloatDiv                  0      0.00%     79.20% # Class of executed instruction
system.cpu1.op_class::SimdFloatMisc                 0      0.00%     79.20% # Class of executed instruction
system.cpu1.op_class::SimdFloatMult                 0      0.00%     79.20% # Class of executed instruction
system.cpu1.op_class::SimdFloatMultAcc              0      0.00%     79.20% # Class of executed instruction
system.cpu1.op_class::SimdFloatSqrt                 0      0.00%     79.20% # Class of executed instruction
system.cpu1.op_class::MemRead                 1195659     13.34%     92.54% # Class of executed instruction
system.cpu1.op_class::MemWrite                 668832      7.46%    100.00% # Class of executed instruction
system.cpu1.op_class::IprAccess                     0      0.00%    100.00% # Class of executed instruction
system.cpu1.op_class::InstPrefetch                  0      0.00%    100.00% # Class of executed instruction
system.cpu1.op_class::total                   8962083                       # Class of executed instruction
system.cpu2.apic_clk_domain.clock                8000                       # Clock period in ticks
system.cpu2.numCycles                      5812033757                       # number of cpu cycles simulated
system.cpu2.numWorkItemsStarted                     0                       # number of work items this cpu started
system.cpu2.numWorkItemsCompleted                   0                       # number of work items this cpu completed
system.cpu2.kern.inst.arm                           0                       # number of arm instructions executed
system.cpu2.kern.inst.quiesce                       0                       # number of quiesce instructions executed
system.cpu2.committedInsts                   48700150                       # Number of instructions committed
system.cpu2.committedOps                     85812657                       # Number of ops (including micro ops) committed
system.cpu2.num_int_alu_accesses             75294679                       # Number of integer alu accesses
system.cpu2.num_fp_alu_accesses              19656007                       # Number of float alu accesses
system.cpu2.num_func_calls                    1290768                       # number of times a function call or return occured
system.cpu2.num_conditional_control_insts      6488916                       # number of instructions that are conditional controls
system.cpu2.num_int_insts                    75294679                       # number of integer instructions
system.cpu2.num_fp_insts                     19656007                       # number of float instructions
system.cpu2.num_int_register_reads          154264514                       # number of times the integer registers were read
system.cpu2.num_int_register_writes          56201659                       # number of times the integer registers were written
system.cpu2.num_fp_register_reads            27213054                       # number of times the floating registers were read
system.cpu2.num_fp_register_writes           14482919                       # number of times the floating registers were written
system.cpu2.num_cc_register_reads            58173371                       # number of times the CC registers were read
system.cpu2.num_cc_register_writes           23628155                       # number of times the CC registers were written
system.cpu2.num_mem_refs                     20361020                       # number of memory refs
system.cpu2.num_load_insts                   13750610                       # Number of load instructions
system.cpu2.num_store_insts                   6610410                       # Number of store instructions
system.cpu2.num_idle_cycles              5630656198.204352                       # Number of idle cycles
system.cpu2.num_busy_cycles              181377558.795647                       # Number of busy cycles
system.cpu2.not_idle_fraction                0.031207                       # Percentage of non-idle cycles
system.cpu2.idle_fraction                    0.968793                       # Percentage of idle cycles
system.cpu2.Branches                          8754215                       # Number of branches fetched
system.cpu2.op_class::No_OpClass               212449      0.25%      0.25% # Class of executed instruction
system.cpu2.op_class::IntAlu                 56179266     65.47%     65.71% # Class of executed instruction
system.cpu2.op_class::IntMult                  243345      0.28%     66.00% # Class of executed instruction
system.cpu2.op_class::IntDiv                   841304      0.98%     66.98% # Class of executed instruction
system.cpu2.op_class::FloatAdd                7917526      9.23%     76.21% # Class of executed instruction
system.cpu2.op_class::FloatCmp                      0      0.00%     76.21% # Class of executed instruction
system.cpu2.op_class::FloatCvt                      0      0.00%     76.21% # Class of executed instruction
system.cpu2.op_class::FloatMult                     0      0.00%     76.21% # Class of executed instruction
system.cpu2.op_class::FloatDiv                  57876      0.07%     76.27% # Class of executed instruction
system.cpu2.op_class::FloatSqrt                     0      0.00%     76.27% # Class of executed instruction
system.cpu2.op_class::SimdAdd                       0      0.00%     76.27% # Class of executed instruction
system.cpu2.op_class::SimdAddAcc                    0      0.00%     76.27% # Class of executed instruction
system.cpu2.op_class::SimdAlu                       0      0.00%     76.27% # Class of executed instruction
system.cpu2.op_class::SimdCmp                       0      0.00%     76.27% # Class of executed instruction
system.cpu2.op_class::SimdCvt                       0      0.00%     76.27% # Class of executed instruction
system.cpu2.op_class::SimdMisc                      0      0.00%     76.27% # Class of executed instruction
system.cpu2.op_class::SimdMult                      0      0.00%     76.27% # Class of executed instruction
system.cpu2.op_class::SimdMultAcc                   0      0.00%     76.27% # Class of executed instruction
system.cpu2.op_class::SimdShift                     0      0.00%     76.27% # Class of executed instruction
system.cpu2.op_class::SimdShiftAcc                  0      0.00%     76.27% # Class of executed instruction
system.cpu2.op_class::SimdSqrt                      0      0.00%     76.27% # Class of executed instruction
system.cpu2.op_class::SimdFloatAdd                  0      0.00%     76.27% # Class of executed instruction
system.cpu2.op_class::SimdFloatAlu                  0      0.00%     76.27% # Class of executed instruction
system.cpu2.op_class::SimdFloatCmp                  0      0.00%     76.27% # Class of executed instruction
system.cpu2.op_class::SimdFloatCvt                  0      0.00%     76.27% # Class of executed instruction
system.cpu2.op_class::SimdFloatDiv                  0      0.00%     76.27% # Class of executed instruction
system.cpu2.op_class::SimdFloatMisc                 0      0.00%     76.27% # Class of executed instruction
system.cpu2.op_class::SimdFloatMult                 0      0.00%     76.27% # Class of executed instruction
system.cpu2.op_class::SimdFloatMultAcc              0      0.00%     76.27% # Class of executed instruction
system.cpu2.op_class::SimdFloatSqrt                 0      0.00%     76.27% # Class of executed instruction
system.cpu2.op_class::MemRead                13750610     16.02%     92.30% # Class of executed instruction
system.cpu2.op_class::MemWrite                6610410      7.70%    100.00% # Class of executed instruction
system.cpu2.op_class::IprAccess                     0      0.00%    100.00% # Class of executed instruction
system.cpu2.op_class::InstPrefetch                  0      0.00%    100.00% # Class of executed instruction
system.cpu2.op_class::total                  85812786                       # Class of executed instruction
system.cpu3.apic_clk_domain.clock                8000                       # Clock period in ticks
system.cpu3.numCycles                      5812873381                       # number of cpu cycles simulated
system.cpu3.numWorkItemsStarted                     0                       # number of work items this cpu started
system.cpu3.numWorkItemsCompleted                   0                       # number of work items this cpu completed
system.cpu3.kern.inst.arm                           0                       # number of arm instructions executed
system.cpu3.kern.inst.quiesce                       0                       # number of quiesce instructions executed
system.cpu3.committedInsts                    2696361                       # Number of instructions committed
system.cpu3.committedOps                      5712637                       # Number of ops (including micro ops) committed
system.cpu3.num_int_alu_accesses              5601278                       # Number of integer alu accesses
system.cpu3.num_fp_alu_accesses                    50                       # Number of float alu accesses
system.cpu3.num_func_calls                     146243                       # number of times a function call or return occured
system.cpu3.num_conditional_control_insts       478055                       # number of instructions that are conditional controls
system.cpu3.num_int_insts                     5601278                       # number of integer instructions
system.cpu3.num_fp_insts                           50                       # number of float instructions
system.cpu3.num_int_register_reads           11041550                       # number of times the integer registers were read
system.cpu3.num_int_register_writes           4612186                       # number of times the integer registers were written
system.cpu3.num_fp_register_reads                  78                       # number of times the floating registers were read
system.cpu3.num_fp_register_writes                 38                       # number of times the floating registers were written
system.cpu3.num_cc_register_reads             3603432                       # number of times the CC registers were read
system.cpu3.num_cc_register_writes            1807530                       # number of times the CC registers were written
system.cpu3.num_mem_refs                      1236369                       # number of memory refs
system.cpu3.num_load_insts                     771908                       # Number of load instructions
system.cpu3.num_store_insts                    464461                       # Number of store instructions
system.cpu3.num_idle_cycles              5801827736.536743                       # Number of idle cycles
system.cpu3.num_busy_cycles              11045644.463257                       # Number of busy cycles
system.cpu3.not_idle_fraction                0.001900                       # Percentage of non-idle cycles
system.cpu3.idle_fraction                    0.998100                       # Percentage of idle cycles
system.cpu3.Branches                           670568                       # Number of branches fetched
system.cpu3.op_class::No_OpClass                89845      1.57%      1.57% # Class of executed instruction
system.cpu3.op_class::IntAlu                  4344481     76.05%     77.62% # Class of executed instruction
system.cpu3.op_class::IntMult                   10056      0.18%     77.80% # Class of executed instruction
system.cpu3.op_class::IntDiv                    31877      0.56%     78.36% # Class of executed instruction
system.cpu3.op_class::FloatAdd                     32      0.00%     78.36% # Class of executed instruction
system.cpu3.op_class::FloatCmp                      0      0.00%     78.36% # Class of executed instruction
system.cpu3.op_class::FloatCvt                      0      0.00%     78.36% # Class of executed instruction
system.cpu3.op_class::FloatMult                     0      0.00%     78.36% # Class of executed instruction
system.cpu3.op_class::FloatDiv                      0      0.00%     78.36% # Class of executed instruction
system.cpu3.op_class::FloatSqrt                     0      0.00%     78.36% # Class of executed instruction
system.cpu3.op_class::SimdAdd                       0      0.00%     78.36% # Class of executed instruction
system.cpu3.op_class::SimdAddAcc                    0      0.00%     78.36% # Class of executed instruction
system.cpu3.op_class::SimdAlu                       0      0.00%     78.36% # Class of executed instruction
system.cpu3.op_class::SimdCmp                       0      0.00%     78.36% # Class of executed instruction
system.cpu3.op_class::SimdCvt                       0      0.00%     78.36% # Class of executed instruction
system.cpu3.op_class::SimdMisc                      0      0.00%     78.36% # Class of executed instruction
system.cpu3.op_class::SimdMult                      0      0.00%     78.36% # Class of executed instruction
system.cpu3.op_class::SimdMultAcc                   0      0.00%     78.36% # Class of executed instruction
system.cpu3.op_class::SimdShift                     0      0.00%     78.36% # Class of executed instruction
system.cpu3.op_class::SimdShiftAcc                  0      0.00%     78.36% # Class of executed instruction
system.cpu3.op_class::SimdSqrt                      0      0.00%     78.36% # Class of executed instruction
system.cpu3.op_class::SimdFloatAdd                  0      0.00%     78.36% # Class of executed instruction
system.cpu3.op_class::SimdFloatAlu                  0      0.00%     78.36% # Class of executed instruction
system.cpu3.op_class::SimdFloatCmp                  0      0.00%     78.36% # Class of executed instruction
system.cpu3.op_class::SimdFloatCvt                  0      0.00%     78.36% # Class of executed instruction
system.cpu3.op_class::SimdFloatDiv                  0      0.00%     78.36% # Class of executed instruction
system.cpu3.op_class::SimdFloatMisc                 0      0.00%     78.36% # Class of executed instruction
system.cpu3.op_class::SimdFloatMult                 0      0.00%     78.36% # Class of executed instruction
system.cpu3.op_class::SimdFloatMultAcc              0      0.00%     78.36% # Class of executed instruction
system.cpu3.op_class::SimdFloatSqrt                 0      0.00%     78.36% # Class of executed instruction
system.cpu3.op_class::MemRead                  771908     13.51%     91.87% # Class of executed instruction
system.cpu3.op_class::MemWrite                 464461      8.13%    100.00% # Class of executed instruction
system.cpu3.op_class::IprAccess                     0      0.00%    100.00% # Class of executed instruction
system.cpu3.op_class::InstPrefetch                  0      0.00%    100.00% # Class of executed instruction
system.cpu3.op_class::total                   5712660                       # Class of executed instruction
system.iobus.trans_dist::ReadReq                  863                       # Transaction distribution
system.iobus.trans_dist::ReadResp                 863                       # Transaction distribution
system.iobus.trans_dist::WriteReq                4536                       # Transaction distribution
system.iobus.trans_dist::WriteResp               4536                       # Transaction distribution
system.iobus.trans_dist::MessageReq               111                       # Transaction distribution
system.iobus.trans_dist::MessageResp              111                       # Transaction distribution
system.iobus.pkt_count_system.pc.south_bridge.io_apic.int_master::system.ruby.l1_cntrl0.sequencer.pio-slave-port           50                       # Packet count per connected master and slave (bytes)
system.iobus.pkt_count_system.pc.south_bridge.io_apic.int_master::system.ruby.l1_cntrl1.sequencer.pio-slave-port           50                       # Packet count per connected master and slave (bytes)
system.iobus.pkt_count_system.pc.south_bridge.io_apic.int_master::system.ruby.l1_cntrl2.sequencer.pio-slave-port           50                       # Packet count per connected master and slave (bytes)
system.iobus.pkt_count_system.pc.south_bridge.io_apic.int_master::system.ruby.l1_cntrl3.sequencer.pio-slave-port           52                       # Packet count per connected master and slave (bytes)
system.iobus.pkt_count_system.pc.south_bridge.io_apic.int_master::total          202                       # Packet count per connected master and slave (bytes)
system.iobus.pkt_count_system.ruby.l1_cntrl0.sequencer.mem-master-port::system.pc.south_bridge.ide.pio          980                       # Packet count per connected master and slave (bytes)
system.iobus.pkt_count_system.ruby.l1_cntrl0.sequencer.mem-master-port::system.ruby.l1_cntrl0.sequencer.pio-slave-port         1536                       # Packet count per connected master and slave (bytes)
system.iobus.pkt_count_system.ruby.l1_cntrl0.sequencer.mem-master-port::system.ruby.l1_cntrl1.sequencer.pio-slave-port            2                       # Packet count per connected master and slave (bytes)
system.iobus.pkt_count_system.ruby.l1_cntrl0.sequencer.mem-master-port::system.ruby.l1_cntrl2.sequencer.pio-slave-port            4                       # Packet count per connected master and slave (bytes)
system.iobus.pkt_count_system.ruby.l1_cntrl0.sequencer.mem-master-port::system.ruby.l1_cntrl3.sequencer.pio-slave-port            6                       # Packet count per connected master and slave (bytes)
system.iobus.pkt_count_system.ruby.l1_cntrl0.sequencer.mem-master-port::total         2528                       # Packet count per connected master and slave (bytes)
system.iobus.pkt_count_system.ruby.l1_cntrl1.sequencer.mem-master-port::system.pc.south_bridge.ide.pio         1308                       # Packet count per connected master and slave (bytes)
system.iobus.pkt_count_system.ruby.l1_cntrl1.sequencer.mem-master-port::system.pc.south_bridge.io_apic.pio            6                       # Packet count per connected master and slave (bytes)
system.iobus.pkt_count_system.ruby.l1_cntrl1.sequencer.mem-master-port::system.pc.com_1.pio          174                       # Packet count per connected master and slave (bytes)
system.iobus.pkt_count_system.ruby.l1_cntrl1.sequencer.mem-master-port::system.ruby.l1_cntrl1.sequencer.pio-slave-port         1514                       # Packet count per connected master and slave (bytes)
system.iobus.pkt_count_system.ruby.l1_cntrl1.sequencer.mem-master-port::system.ruby.l1_cntrl2.sequencer.pio-slave-port            2                       # Packet count per connected master and slave (bytes)
system.iobus.pkt_count_system.ruby.l1_cntrl1.sequencer.mem-master-port::total         3004                       # Packet count per connected master and slave (bytes)
system.iobus.pkt_count_system.ruby.l1_cntrl2.sequencer.mem-master-port::system.pc.south_bridge.ide.pio         1138                       # Packet count per connected master and slave (bytes)
system.iobus.pkt_count_system.ruby.l1_cntrl2.sequencer.mem-master-port::system.pc.south_bridge.io_apic.pio            8                       # Packet count per connected master and slave (bytes)
system.iobus.pkt_count_system.ruby.l1_cntrl2.sequencer.mem-master-port::system.ruby.l1_cntrl1.sequencer.pio-slave-port            2                       # Packet count per connected master and slave (bytes)
system.iobus.pkt_count_system.ruby.l1_cntrl2.sequencer.mem-master-port::system.ruby.l1_cntrl2.sequencer.pio-slave-port         1522                       # Packet count per connected master and slave (bytes)
system.iobus.pkt_count_system.ruby.l1_cntrl2.sequencer.mem-master-port::system.ruby.l1_cntrl3.sequencer.pio-slave-port            2                       # Packet count per connected master and slave (bytes)
system.iobus.pkt_count_system.ruby.l1_cntrl2.sequencer.mem-master-port::total         2672                       # Packet count per connected master and slave (bytes)
system.iobus.pkt_count_system.ruby.l1_cntrl3.sequencer.mem-master-port::system.pc.south_bridge.ide.pio         1082                       # Packet count per connected master and slave (bytes)
system.iobus.pkt_count_system.ruby.l1_cntrl3.sequencer.mem-master-port::system.pc.south_bridge.io_apic.pio            8                       # Packet count per connected master and slave (bytes)
system.iobus.pkt_count_system.ruby.l1_cntrl3.sequencer.mem-master-port::system.pc.com_1.pio            2                       # Packet count per connected master and slave (bytes)
system.iobus.pkt_count_system.ruby.l1_cntrl3.sequencer.mem-master-port::system.ruby.l1_cntrl0.sequencer.pio-slave-port            2                       # Packet count per connected master and slave (bytes)
system.iobus.pkt_count_system.ruby.l1_cntrl3.sequencer.mem-master-port::system.ruby.l1_cntrl3.sequencer.pio-slave-port         1520                       # Packet count per connected master and slave (bytes)
system.iobus.pkt_count_system.ruby.l1_cntrl3.sequencer.mem-master-port::total         2614                       # Packet count per connected master and slave (bytes)
system.iobus.pkt_count::total                   11020                       # Packet count per connected master and slave (bytes)
system.iobus.pkt_size_system.pc.south_bridge.io_apic.int_master::system.ruby.l1_cntrl0.sequencer.pio-slave-port          100                       # Cumulative packet size per connected master and slave (bytes)
system.iobus.pkt_size_system.pc.south_bridge.io_apic.int_master::system.ruby.l1_cntrl1.sequencer.pio-slave-port          100                       # Cumulative packet size per connected master and slave (bytes)
system.iobus.pkt_size_system.pc.south_bridge.io_apic.int_master::system.ruby.l1_cntrl2.sequencer.pio-slave-port          100                       # Cumulative packet size per connected master and slave (bytes)
system.iobus.pkt_size_system.pc.south_bridge.io_apic.int_master::system.ruby.l1_cntrl3.sequencer.pio-slave-port          104                       # Cumulative packet size per connected master and slave (bytes)
system.iobus.pkt_size_system.pc.south_bridge.io_apic.int_master::total          404                       # Cumulative packet size per connected master and slave (bytes)
system.iobus.pkt_size_system.ruby.l1_cntrl0.sequencer.mem-master-port::system.pc.south_bridge.ide.pio          550                       # Cumulative packet size per connected master and slave (bytes)
system.iobus.pkt_size_system.ruby.l1_cntrl0.sequencer.mem-master-port::system.ruby.l1_cntrl0.sequencer.pio-slave-port         3072                       # Cumulative packet size per connected master and slave (bytes)
system.iobus.pkt_size_system.ruby.l1_cntrl0.sequencer.mem-master-port::system.ruby.l1_cntrl1.sequencer.pio-slave-port            4                       # Cumulative packet size per connected master and slave (bytes)
system.iobus.pkt_size_system.ruby.l1_cntrl0.sequencer.mem-master-port::system.ruby.l1_cntrl2.sequencer.pio-slave-port            8                       # Cumulative packet size per connected master and slave (bytes)
system.iobus.pkt_size_system.ruby.l1_cntrl0.sequencer.mem-master-port::system.ruby.l1_cntrl3.sequencer.pio-slave-port           12                       # Cumulative packet size per connected master and slave (bytes)
system.iobus.pkt_size_system.ruby.l1_cntrl0.sequencer.mem-master-port::total         3646                       # Cumulative packet size per connected master and slave (bytes)
system.iobus.pkt_size_system.ruby.l1_cntrl1.sequencer.mem-master-port::system.pc.south_bridge.ide.pio          744                       # Cumulative packet size per connected master and slave (bytes)
system.iobus.pkt_size_system.ruby.l1_cntrl1.sequencer.mem-master-port::system.pc.south_bridge.io_apic.pio           12                       # Cumulative packet size per connected master and slave (bytes)
system.iobus.pkt_size_system.ruby.l1_cntrl1.sequencer.mem-master-port::system.pc.com_1.pio           87                       # Cumulative packet size per connected master and slave (bytes)
system.iobus.pkt_size_system.ruby.l1_cntrl1.sequencer.mem-master-port::system.ruby.l1_cntrl1.sequencer.pio-slave-port         3028                       # Cumulative packet size per connected master and slave (bytes)
system.iobus.pkt_size_system.ruby.l1_cntrl1.sequencer.mem-master-port::system.ruby.l1_cntrl2.sequencer.pio-slave-port            4                       # Cumulative packet size per connected master and slave (bytes)
system.iobus.pkt_size_system.ruby.l1_cntrl1.sequencer.mem-master-port::total         3875                       # Cumulative packet size per connected master and slave (bytes)
system.iobus.pkt_size_system.ruby.l1_cntrl2.sequencer.mem-master-port::system.pc.south_bridge.ide.pio          644                       # Cumulative packet size per connected master and slave (bytes)
system.iobus.pkt_size_system.ruby.l1_cntrl2.sequencer.mem-master-port::system.pc.south_bridge.io_apic.pio           16                       # Cumulative packet size per connected master and slave (bytes)
system.iobus.pkt_size_system.ruby.l1_cntrl2.sequencer.mem-master-port::system.ruby.l1_cntrl1.sequencer.pio-slave-port            4                       # Cumulative packet size per connected master and slave (bytes)
system.iobus.pkt_size_system.ruby.l1_cntrl2.sequencer.mem-master-port::system.ruby.l1_cntrl2.sequencer.pio-slave-port         3044                       # Cumulative packet size per connected master and slave (bytes)
system.iobus.pkt_size_system.ruby.l1_cntrl2.sequencer.mem-master-port::system.ruby.l1_cntrl3.sequencer.pio-slave-port            4                       # Cumulative packet size per connected master and slave (bytes)
system.iobus.pkt_size_system.ruby.l1_cntrl2.sequencer.mem-master-port::total         3712                       # Cumulative packet size per connected master and slave (bytes)
system.iobus.pkt_size_system.ruby.l1_cntrl3.sequencer.mem-master-port::system.pc.south_bridge.ide.pio          610                       # Cumulative packet size per connected master and slave (bytes)
system.iobus.pkt_size_system.ruby.l1_cntrl3.sequencer.mem-master-port::system.pc.south_bridge.io_apic.pio           16                       # Cumulative packet size per connected master and slave (bytes)
system.iobus.pkt_size_system.ruby.l1_cntrl3.sequencer.mem-master-port::system.pc.com_1.pio            1                       # Cumulative packet size per connected master and slave (bytes)
system.iobus.pkt_size_system.ruby.l1_cntrl3.sequencer.mem-master-port::system.ruby.l1_cntrl0.sequencer.pio-slave-port            4                       # Cumulative packet size per connected master and slave (bytes)
system.iobus.pkt_size_system.ruby.l1_cntrl3.sequencer.mem-master-port::system.ruby.l1_cntrl3.sequencer.pio-slave-port         3040                       # Cumulative packet size per connected master and slave (bytes)
system.iobus.pkt_size_system.ruby.l1_cntrl3.sequencer.mem-master-port::total         3671                       # Cumulative packet size per connected master and slave (bytes)
system.iobus.pkt_size::total                    15308                       # Cumulative packet size per connected master and slave (bytes)
system.iobus.reqLayer2.occupancy              3904000                       # Layer occupancy (ticks)
system.iobus.reqLayer2.utilization                0.0                       # Layer utilization (%)
system.iobus.reqLayer8.occupancy                19997                       # Layer occupancy (ticks)
system.iobus.reqLayer8.utilization                0.0                       # Layer utilization (%)
system.iobus.reqLayer12.occupancy              112500                       # Layer occupancy (ticks)
system.iobus.reqLayer12.utilization               0.0                       # Layer utilization (%)
system.iobus.reqLayer17.occupancy             2142770                       # Layer occupancy (ticks)
system.iobus.reqLayer17.utilization               0.0                       # Layer utilization (%)
system.iobus.reqLayer18.occupancy             1953476                       # Layer occupancy (ticks)
system.iobus.reqLayer18.utilization               0.0                       # Layer utilization (%)
system.iobus.reqLayer19.occupancy             1964967                       # Layer occupancy (ticks)
system.iobus.reqLayer19.utilization               0.0                       # Layer utilization (%)
system.iobus.reqLayer20.occupancy             1964974                       # Layer occupancy (ticks)
system.iobus.reqLayer20.utilization               0.0                       # Layer utilization (%)
system.iobus.respLayer0.occupancy              179902                       # Layer occupancy (ticks)
system.iobus.respLayer0.utilization               0.0                       # Layer utilization (%)
system.iobus.respLayer2.occupancy             1833000                       # Layer occupancy (ticks)
system.iobus.respLayer2.utilization               0.0                       # Layer utilization (%)
system.iobus.respLayer4.occupancy             2163500                       # Layer occupancy (ticks)
system.iobus.respLayer4.utilization               0.0                       # Layer utilization (%)
system.iobus.respLayer6.occupancy             1916500                       # Layer occupancy (ticks)
system.iobus.respLayer6.utilization               0.0                       # Layer utilization (%)
system.iobus.respLayer8.occupancy             1882000                       # Layer occupancy (ticks)
system.iobus.respLayer8.utilization               0.0                       # Layer utilization (%)
system.pc.south_bridge.ide.disks.dma_read_full_pages         1522                       # Number of full page size DMA reads (not PRD).
system.pc.south_bridge.ide.disks.dma_read_bytes      6234112                       # Number of bytes transfered via DMA reads (not PRD).
system.pc.south_bridge.ide.disks.dma_read_txs         1522                       # Number of DMA read transactions (not PRD).
system.pc.south_bridge.ide.disks.dma_write_full_pages           45                       # Number of full page size DMA writes.
system.pc.south_bridge.ide.disks.dma_write_bytes       184320                       # Number of bytes transfered via DMA writes.
system.pc.south_bridge.ide.disks.dma_write_txs           45                       # Number of DMA write transactions.
system.ruby.clk_domain.clock                      500                       # Clock period in ticks
system.ruby.outstanding_req_hist_seqr::bucket_size            1                      
system.ruby.outstanding_req_hist_seqr::max_bucket            9                      
system.ruby.outstanding_req_hist_seqr::samples   2882150906                      
system.ruby.outstanding_req_hist_seqr::mean     1.000000                      
system.ruby.outstanding_req_hist_seqr::gmean     1.000000                      
system.ruby.outstanding_req_hist_seqr::stdev     0.000263                      
system.ruby.outstanding_req_hist_seqr    |           0      0.00%      0.00% |  2882150706    100.00%    100.00% |         200      0.00%    100.00% |           0      0.00%    100.00% |           0      0.00%    100.00% |           0      0.00%    100.00% |           0      0.00%    100.00% |           0      0.00%    100.00% |           0      0.00%    100.00% |           0      0.00%    100.00%
system.ruby.outstanding_req_hist_seqr::total   2882150906                      
system.ruby.latency_hist_seqr::bucket_size          128                      
system.ruby.latency_hist_seqr::max_bucket         1279                      
system.ruby.latency_hist_seqr::samples     2882150906                      
system.ruby.latency_hist_seqr::mean          1.029709                      
system.ruby.latency_hist_seqr::gmean         1.004794                      
system.ruby.latency_hist_seqr::stdev         0.954317                      
[...]
system.ruby.L1Cache_Controller.S.Fwd_GETS::total         5913                      
system.ruby.L1Cache_Controller.S.Inv     |         627      4.26%      4.26% |        1166      7.92%     12.18% |        6210     42.20%     54.39% |        6712     45.61%    100.00%
system.ruby.L1Cache_Controller.S.Inv::total        14715                      
system.ruby.L1Cache_Controller.O.Load    |        1343      5.63%      5.63% |       11285     47.35%     52.98% |       10101     42.38%     95.36% |        1105      4.64%    100.00%
system.ruby.L1Cache_Controller.O.Load::total        23834                      
system.ruby.L1Cache_Controller.O.Store   |         101     34.12%     34.12% |          44     14.86%     48.99% |          64     21.62%     70.61% |          87     29.39%    100.00%
system.ruby.L1Cache_Controller.O.Store::total          296                      
system.ruby.L1Cache_Controller.O.L1_Replacement |         150     11.92%     11.92% |         326     25.91%     37.84% |         466     37.04%     74.88% |         316     25.12%    100.00%
system.ruby.L1Cache_Controller.O.L1_Replacement::total         1258                      
system.ruby.L1Cache_Controller.O.Fwd_GETX |         605      3.86%      3.86% |        8334     53.24%     57.10% |        3346     21.37%     78.48% |        3369     21.52%    100.00%
system.ruby.L1Cache_Controller.O.Fwd_GETX::total        15654                      
system.ruby.L1Cache_Controller.O.Fwd_GETS |         226      0.58%      0.58% |       10381     26.56%     27.14% |       26661     68.22%     95.36% |        1814      4.64%    100.00%
system.ruby.L1Cache_Controller.O.Fwd_GETS::total        39082                      
system.ruby.L1Cache_Controller.M.Load    |     2553089     92.52%     92.52% |       59016      2.14%     94.66% |       82014      2.97%     97.63% |       65346      2.37%    100.00%
system.ruby.L1Cache_Controller.M.Load::total      2759465                      
system.ruby.L1Cache_Controller.M.Store   |       31078     64.18%     64.18% |        4072      8.41%     72.59% |        7561     15.61%     88.20% |        5713     11.80%    100.00%
system.ruby.L1Cache_Controller.M.Store::total        48424                      
system.ruby.L1Cache_Controller.M.L1_Replacement |      339922     96.97%     96.97% |        2907      0.83%     97.79% |        5669      1.62%     99.41% |        2061      0.59%    100.00%
system.ruby.L1Cache_Controller.M.L1_Replacement::total       350559                      
system.ruby.L1Cache_Controller.M.Fwd_GETX |         780     52.45%     52.45% |         136      9.15%     61.60% |         287     19.30%     80.90% |         284     19.10%    100.00%
system.ruby.L1Cache_Controller.M.Fwd_GETX::total         1487                      
system.ruby.L1Cache_Controller.M.Fwd_GETS |         892      5.21%      5.21% |        8696     50.75%     55.96% |        3897     22.74%     78.70% |        3650     21.30%    100.00%
system.ruby.L1Cache_Controller.M.Fwd_GETS::total        17135                      
system.ruby.L1Cache_Controller.M_W.Load  |       97008     74.18%     74.18% |       12717      9.72%     83.90% |       12563      9.61%     93.51% |        8490      6.49%    100.00%
system.ruby.L1Cache_Controller.M_W.Load::total       130778                      
system.ruby.L1Cache_Controller.M_W.Store |       19086     84.02%     84.02% |        1257      5.53%     89.55% |        1161      5.11%     94.66% |        1213      5.34%    100.00%
system.ruby.L1Cache_Controller.M_W.Store::total        22717                      
system.ruby.L1Cache_Controller.M_W.Fwd_GETX |          77     77.78%     77.78% |           3      3.03%     80.81% |          12     12.12%     92.93% |           7      7.07%    100.00%
system.ruby.L1Cache_Controller.M_W.Fwd_GETX::total           99                      
system.ruby.L1Cache_Controller.M_W.Fwd_GETS |         264     46.32%     46.32% |          79     13.86%     60.18% |          81     14.21%     74.39% |         146     25.61%    100.00%
system.ruby.L1Cache_Controller.M_W.Fwd_GETS::total          570                      
system.ruby.L1Cache_Controller.M_W.Use_Timeout |      372700     89.18%     89.18% |       15884      3.80%     92.98% |       17618      4.22%     97.20% |       11720      2.80%    100.00%
system.ruby.L1Cache_Controller.M_W.Use_Timeout::total       417922                      
system.ruby.L1Cache_Controller.MM.Load   |   195520121     94.67%     94.67% |     1021765      0.49%     95.17% |     9062960      4.39%     99.55% |      921538      0.45%    100.00%
system.ruby.L1Cache_Controller.MM.Load::total    206526384                      
system.ruby.L1Cache_Controller.MM.Store  |   161883856     94.16%     94.16% |      937762      0.55%     94.71% |     8127904      4.73%     99.44% |      967316      0.56%    100.00%
system.ruby.L1Cache_Controller.MM.Store::total    171916838                      
system.ruby.L1Cache_Controller.MM.L1_Replacement |      303201     82.45%     82.45% |       18191      4.95%     87.39% |       26803      7.29%     94.68% |       19565      5.32%    100.00%
system.ruby.L1Cache_Controller.MM.L1_Replacement::total       367760                      
system.ruby.L1Cache_Controller.MM.Fwd_GETX |        2331     25.46%     25.46% |        1693     18.49%     43.95% |        3060     33.42%     77.37% |        2072     22.63%    100.00%
system.ruby.L1Cache_Controller.MM.Fwd_GETX::total         9156                      
system.ruby.L1Cache_Controller.MM.Fwd_GETS |        8361     36.76%     36.76% |        4939     21.71%     58.47% |        4850     21.32%     79.79% |        4596     20.21%    100.00%
system.ruby.L1Cache_Controller.MM.Fwd_GETS::total        22746                      
system.ruby.L1Cache_Controller.MM.Fwd_DMA |         222     22.38%     22.38% |         354     35.69%     58.06% |         184     18.55%     76.61% |         232     23.39%    100.00%
system.ruby.L1Cache_Controller.MM.Fwd_DMA::total          992                      
system.ruby.L1Cache_Controller.MM_W.Load |       23307     68.88%     68.88% |        4082     12.06%     80.94% |        4098     12.11%     93.05% |        2351      6.95%    100.00%
system.ruby.L1Cache_Controller.MM_W.Load::total        33838                      
system.ruby.L1Cache_Controller.MM_W.Store |      589388     72.00%     72.00% |       66242      8.09%     80.10% |       84368     10.31%     90.40% |       78541      9.60%    100.00%
system.ruby.L1Cache_Controller.MM_W.Store::total       818539                      
system.ruby.L1Cache_Controller.MM_W.Fwd_GETX |          30     66.67%     66.67% |          11     24.44%     91.11% |           4      8.89%    100.00% |           0      0.00%    100.00%
system.ruby.L1Cache_Controller.MM_W.Fwd_GETX::total           45                      
system.ruby.L1Cache_Controller.MM_W.Fwd_GETS |        1159     36.81%     36.81% |         884     28.07%     64.88% |         323     10.26%     75.13% |         783     24.87%    100.00%
system.ruby.L1Cache_Controller.MM_W.Fwd_GETS::total         3149                      
system.ruby.L1Cache_Controller.MM_W.Use_Timeout |      282552     80.25%     80.25% |       21537      6.12%     86.37% |       26956      7.66%     94.03% |       21027      5.97%    100.00%
system.ruby.L1Cache_Controller.MM_W.Use_Timeout::total       352072                      
system.ruby.L1Cache_Controller.IM.Ack    |        7419     33.27%     33.27% |        4617     20.71%     53.98% |        4860     21.80%     75.77% |        5402     24.23%    100.00%
system.ruby.L1Cache_Controller.IM.Ack::total        22298                      
system.ruby.L1Cache_Controller.IM.Exclusive_Data |      253686     84.31%     84.31% |       13772      4.58%     88.89% |       19278      6.41%     95.30% |       14150      4.70%    100.00%
system.ruby.L1Cache_Controller.IM.Exclusive_Data::total       300886                      
system.ruby.L1Cache_Controller.SM.Ack    |        9283     60.66%     60.66% |        2617     17.10%     77.76% |        2008     13.12%     90.88% |        1395      9.12%    100.00%
system.ruby.L1Cache_Controller.SM.Ack::total        15303                      
system.ruby.L1Cache_Controller.SM.Exclusive_Data |        9679     34.36%     34.36% |        6464     22.94%     57.30% |        6453     22.90%     80.20% |        5577     19.80%    100.00%
system.ruby.L1Cache_Controller.SM.Exclusive_Data::total        28173                      
system.ruby.L1Cache_Controller.OM.Own_GETX |         101     34.12%     34.12% |          44     14.86%     48.99% |          64     21.62%     70.61% |          87     29.39%    100.00%
system.ruby.L1Cache_Controller.OM.Own_GETX::total          296                      
system.ruby.L1Cache_Controller.OM.Ack    |        1538     41.49%     41.49% |         948     25.57%     67.06% |         436     11.76%     78.82% |         785     21.18%    100.00%
system.ruby.L1Cache_Controller.OM.Ack::total         3707                      
system.ruby.L1Cache_Controller.OM.All_acks |      263466     79.99%     79.99% |       20280      6.16%     86.15% |       25795      7.83%     93.98% |       19814      6.02%    100.00%
system.ruby.L1Cache_Controller.OM.All_acks::total       329355                      
system.ruby.L1Cache_Controller.IS.Data   |     3933269     92.66%     92.66% |       85914      2.02%     94.68% |      133878      3.15%     97.84% |       91737      2.16%    100.00%
system.ruby.L1Cache_Controller.IS.Data::total      4244798                      
system.ruby.L1Cache_Controller.IS.Exclusive_Data |      391786     88.91%     88.91% |       17141      3.89%     92.80% |       18779      4.26%     97.06% |       12933      2.94%    100.00%
system.ruby.L1Cache_Controller.IS.Exclusive_Data::total       440639                      
system.ruby.L1Cache_Controller.SI.Load   |           2     14.29%     14.29% |           1      7.14%     21.43% |           2     14.29%     35.71% |           9     64.29%    100.00%
system.ruby.L1Cache_Controller.SI.Load::total           14                      
system.ruby.L1Cache_Controller.SI.Ifetch |           0      0.00%      0.00% |           1     11.11%     11.11% |           0      0.00%     11.11% |           8     88.89%    100.00%
system.ruby.L1Cache_Controller.SI.Ifetch::total            9                      
system.ruby.L1Cache_Controller.SI.Fwd_GETS |           0      0.00%      0.00% |           1    100.00%    100.00% |           0      0.00%    100.00% |           0      0.00%    100.00%
system.ruby.L1Cache_Controller.SI.Fwd_GETS::total            1                      
system.ruby.L1Cache_Controller.SI.Writeback_Ack |     3886160     94.65%     94.65% |       69881      1.70%     96.35% |       79466      1.94%     98.29% |       70314      1.71%    100.00%
system.ruby.L1Cache_Controller.SI.Writeback_Ack::total      4105821                      
system.ruby.L1Cache_Controller.SI.Writeback_Ack_Data |       37221     38.89%     38.89% |        7566      7.90%     46.79% |       41783     43.65%     90.45% |        9145      9.55%    100.00%
system.ruby.L1Cache_Controller.SI.Writeback_Ack_Data::total        95715                      
system.ruby.L1Cache_Controller.OI.Writeback_Ack_Data |         150     11.92%     11.92% |         326     25.91%     37.84% |         466     37.04%     74.88% |         316     25.12%    100.00%
system.ruby.L1Cache_Controller.OI.Writeback_Ack_Data::total         1258                      
system.ruby.L1Cache_Controller.MI.Load   |          64     92.75%     92.75% |           4      5.80%     98.55% |           1      1.45%    100.00% |           0      0.00%    100.00%
system.ruby.L1Cache_Controller.MI.Load::total           69                      
system.ruby.L1Cache_Controller.MI.Writeback_Ack_Data |      643123     89.53%     89.53% |       21098      2.94%     92.47% |       32472      4.52%     96.99% |       21626      3.01%    100.00%
system.ruby.L1Cache_Controller.MI.Writeback_Ack_Data::total       718319                      
system.ruby.L2Cache_Controller.L1_GETS        4685839      0.00%      0.00%
system.ruby.L2Cache_Controller.L1_GETX         329367      0.00%      0.00%
system.ruby.L2Cache_Controller.L1_PUTO           1258      0.00%      0.00%
system.ruby.L2Cache_Controller.L1_PUTX         718319      0.00%      0.00%
system.ruby.L2Cache_Controller.L1_PUTS_only      3808957      0.00%      0.00%
system.ruby.L2Cache_Controller.L1_PUTS         392591      0.00%      0.00%
system.ruby.L2Cache_Controller.Fwd_DMA           1418      0.00%      0.00%
system.ruby.L2Cache_Controller.All_Acks         46015      0.00%      0.00%
system.ruby.L2Cache_Controller.Data            155958      0.00%      0.00%
system.ruby.L2Cache_Controller.L1_WBCLEANDATA        95715      0.00%      0.00%
system.ruby.L2Cache_Controller.L1_WBDIRTYDATA       719577      0.00%      0.00%
system.ruby.L2Cache_Controller.Writeback_Ack        33827      0.00%      0.00%
system.ruby.L2Cache_Controller.Unblock        8350619      0.00%      0.00%
system.ruby.L2Cache_Controller.Exclusive_Unblock       769994      0.00%      0.00%
system.ruby.L2Cache_Controller.DmaAck             992      0.00%      0.00%
system.ruby.L2Cache_Controller.L2_Replacement       119374      0.00%      0.00%
system.ruby.L2Cache_Controller.NP.L1_GETS       109943      0.00%      0.00%
system.ruby.L2Cache_Controller.NP.L1_GETX        24784      0.00%      0.00%
system.ruby.L2Cache_Controller.ILS.L1_GETS         5914      0.00%      0.00%
system.ruby.L2Cache_Controller.ILS.L1_GETX        18396      0.00%      0.00%
system.ruby.L2Cache_Controller.ILS.L1_PUTS_only        90599      0.00%      0.00%
system.ruby.L2Cache_Controller.ILS.L1_PUTS         5116      0.00%      0.00%
system.ruby.L2Cache_Controller.ILX.L1_GETS        39881      0.00%      0.00%
system.ruby.L2Cache_Controller.ILX.L1_GETX        10643      0.00%      0.00%
system.ruby.L2Cache_Controller.ILX.L1_PUTX       718319      0.00%      0.00%
system.ruby.L2Cache_Controller.ILX.Fwd_DMA          992      0.00%      0.00%
system.ruby.L2Cache_Controller.ILOX.L1_GETS        29116      0.00%      0.00%
system.ruby.L2Cache_Controller.ILOX.L1_GETX         1572      0.00%      0.00%
system.ruby.L2Cache_Controller.ILOX.L1_PUTO          648      0.00%      0.00%
system.ruby.L2Cache_Controller.ILOSX.L1_GETS         9966      0.00%      0.00%
system.ruby.L2Cache_Controller.ILOSX.L1_GETX        14378      0.00%      0.00%
system.ruby.L2Cache_Controller.ILOSX.L1_PUTO          610      0.00%      0.00%
system.ruby.L2Cache_Controller.ILOSX.L1_PUTS_only        31388      0.00%      0.00%
system.ruby.L2Cache_Controller.ILOSX.L1_PUTS         2277      0.00%      0.00%
system.ruby.L2Cache_Controller.S.L1_GETS      3687612      0.00%      0.00%
system.ruby.L2Cache_Controller.S.L1_GETX         1422      0.00%      0.00%
system.ruby.L2Cache_Controller.S.L2_Replacement        81658      0.00%      0.00%
system.ruby.L2Cache_Controller.OLSX.L1_GETS         6637      0.00%      0.00%
system.ruby.L2Cache_Controller.OLSX.L1_GETX          166      0.00%      0.00%
system.ruby.L2Cache_Controller.OLSX.L1_PUTS_only          224      0.00%      0.00%
system.ruby.L2Cache_Controller.OLSX.L1_PUTS         6530      0.00%      0.00%
system.ruby.L2Cache_Controller.OLSX.L2_Replacement          201      0.00%      0.00%
system.ruby.L2Cache_Controller.SLS.L1_GETS       378475      0.00%      0.00%
system.ruby.L2Cache_Controller.SLS.L1_GETX         1413      0.00%      0.00%
system.ruby.L2Cache_Controller.SLS.L1_PUTS_only      3686739      0.00%      0.00%
system.ruby.L2Cache_Controller.SLS.L1_PUTS       378663      0.00%      0.00%
system.ruby.L2Cache_Controller.SLS.L2_Replacement         3889      0.00%      0.00%
system.ruby.L2Cache_Controller.M.L1_GETS       417893      0.00%      0.00%
system.ruby.L2Cache_Controller.M.L1_GETX       256581      0.00%      0.00%
system.ruby.L2Cache_Controller.M.Fwd_DMA          426      0.00%      0.00%
system.ruby.L2Cache_Controller.M.L2_Replacement        33626      0.00%      0.00%
system.ruby.L2Cache_Controller.ILOXW.L1_WBDIRTYDATA          648      0.00%      0.00%
system.ruby.L2Cache_Controller.ILOXW.Unblock        31388      0.00%      0.00%
system.ruby.L2Cache_Controller.ILOSXW.L1_GETX            2      0.00%      0.00%
system.ruby.L2Cache_Controller.ILOSXW.L1_PUTS_only            2      0.00%      0.00%
system.ruby.L2Cache_Controller.ILOSXW.L1_WBDIRTYDATA          610      0.00%      0.00%
system.ruby.L2Cache_Controller.ILOSXW.Unblock         2277      0.00%      0.00%
system.ruby.L2Cache_Controller.SLSW.L1_GETS            2      0.00%      0.00%
system.ruby.L2Cache_Controller.SLSW.L1_PUTS            5      0.00%      0.00%
system.ruby.L2Cache_Controller.SLSW.Unblock       378663      0.00%      0.00%
system.ruby.L2Cache_Controller.ILSW.L1_WBCLEANDATA         5116      0.00%      0.00%
system.ruby.L2Cache_Controller.IW.L1_WBCLEANDATA        90599      0.00%      0.00%
system.ruby.L2Cache_Controller.SW.L1_GETS            2      0.00%      0.00%
system.ruby.L2Cache_Controller.SW.Unblock      3686739      0.00%      0.00%
system.ruby.L2Cache_Controller.OXW.Unblock          224      0.00%      0.00%
system.ruby.L2Cache_Controller.OLSXW.Unblock         6530      0.00%      0.00%
system.ruby.L2Cache_Controller.ILXW.L1_WBDIRTYDATA       718319      0.00%      0.00%
system.ruby.L2Cache_Controller.IFLS.L1_GETS            6      0.00%      0.00%
system.ruby.L2Cache_Controller.IFLS.L1_PUTS_only            3      0.00%      0.00%
system.ruby.L2Cache_Controller.IFLS.Unblock         5914      0.00%      0.00%
system.ruby.L2Cache_Controller.IFLOX.Unblock        29116      0.00%      0.00%
system.ruby.L2Cache_Controller.IFLOX.Exclusive_Unblock          166      0.00%      0.00%
system.ruby.L2Cache_Controller.IFLOXX.L1_GETS          219      0.00%      0.00%
system.ruby.L2Cache_Controller.IFLOXX.L1_GETX           10      0.00%      0.00%
system.ruby.L2Cache_Controller.IFLOXX.Unblock        17135      0.00%      0.00%
system.ruby.L2Cache_Controller.IFLOXX.Exclusive_Unblock        34961      0.00%      0.00%
system.ruby.L2Cache_Controller.IFLOSX.Unblock         9966      0.00%      0.00%
system.ruby.L2Cache_Controller.IFLXO.L1_GETS          163      0.00%      0.00%
system.ruby.L2Cache_Controller.IFLXO.Exclusive_Unblock        14378      0.00%      0.00%
system.ruby.L2Cache_Controller.IGS.L1_GETS            7      0.00%      0.00%
system.ruby.L2Cache_Controller.IGS.Data        109943      0.00%      0.00%
system.ruby.L2Cache_Controller.IGS.Unblock       109943      0.00%      0.00%
system.ruby.L2Cache_Controller.IGM.Data         26206      0.00%      0.00%
system.ruby.L2Cache_Controller.IGMLS.Data        19809      0.00%      0.00%
system.ruby.L2Cache_Controller.IGMO.All_Acks        46015      0.00%      0.00%
system.ruby.L2Cache_Controller.IGMO.Exclusive_Unblock        46015      0.00%      0.00%
system.ruby.L2Cache_Controller.MM.Exclusive_Unblock       256581      0.00%      0.00%
system.ruby.L2Cache_Controller.SS.Unblock      3687612      0.00%      0.00%
system.ruby.L2Cache_Controller.OO.L1_GETS            1      0.00%      0.00%
system.ruby.L2Cache_Controller.OO.Exclusive_Unblock       417893      0.00%      0.00%
system.ruby.L2Cache_Controller.OLSXS.Unblock         6637      0.00%      0.00%
system.ruby.L2Cache_Controller.SLSS.L1_GETS            2      0.00%      0.00%
system.ruby.L2Cache_Controller.SLSS.L1_PUTS_only            2      0.00%      0.00%
system.ruby.L2Cache_Controller.SLSS.Unblock       378475      0.00%      0.00%
system.ruby.L2Cache_Controller.MI.Writeback_Ack        33626      0.00%      0.00%
system.ruby.L2Cache_Controller.OLSI.Writeback_Ack          201      0.00%      0.00%
system.ruby.L2Cache_Controller.ILXD.DmaAck          992      0.00%      0.00%

---------- End Simulation Statistics   ----------
