
---------- Begin Simulation Statistics ----------
sim_seconds                                  2.419017                       # Number of seconds simulated
sim_ticks                                2419016651000                       # Number of ticks simulated
final_tick                               54857525910501                       # Number of ticks from beginning of simulation (restored from checkpoints and never reset)
sim_freq                                 1000000000000                       # Frequency of simulated ticks
host_inst_rate                                 158699                       # Simulator instruction rate (inst/s)
host_op_rate                                   287674                       # Simulator op (including micro ops) rate (op/s)
host_tick_rate                              292373258                       # Simulator tick rate (ticks/s)
host_mem_usage                                1976048                       # Number of bytes of host memory used
host_seconds                                  8273.73                       # Real time elapsed on the host
sim_insts                                  1313029736                       # Number of instructions simulated
sim_ops                                    2380134207                       # Number of ops (including micro ops) simulated
system.voltage_domain.voltage                       1                       # Voltage in Volts
system.clk_domain.clock                          1000                       # Clock period in ticks
system.mem_ctrls.bytes_read::ruby.dir_cntrl0    179411648                       # Number of bytes read from this memory
system.mem_ctrls.bytes_read::total          179411648                       # Number of bytes read from this memory
system.mem_ctrls.bytes_written::ruby.dir_cntrl0    177935616                       # Number of bytes written to this memory
system.mem_ctrls.bytes_written::total       177935616                       # Number of bytes written to this memory
system.mem_ctrls.num_reads::ruby.dir_cntrl0      2803307                       # Number of read requests responded to by this memory
system.mem_ctrls.num_reads::total             2803307                       # Number of read requests responded to by this memory
system.mem_ctrls.num_writes::ruby.dir_cntrl0      2780244                       # Number of write requests responded to by this memory
system.mem_ctrls.num_writes::total            2780244                       # Number of write requests responded to by this memory
system.mem_ctrls.bw_read::ruby.dir_cntrl0     74167182                       # Total read bandwidth from this memory (bytes/s)
system.mem_ctrls.bw_read::total              74167182                       # Total read bandwidth from this memory (bytes/s)
system.mem_ctrls.bw_write::ruby.dir_cntrl0     73557003                       # Write bandwidth from this memory (bytes/s)
system.mem_ctrls.bw_write::total             73557003                       # Write bandwidth from this memory (bytes/s)
system.mem_ctrls.bw_total::ruby.dir_cntrl0    147724185                       # Total bandwidth to/from this memory (bytes/s)
system.mem_ctrls.bw_total::total            147724185                       # Total bandwidth to/from this memory (bytes/s)
system.mem_ctrls.readReqs                     2803307                       # Number of read requests accepted
system.mem_ctrls.writeReqs                    2780244                       # Number of write requests accepted
system.mem_ctrls.readBursts                   2803307                       # Number of DRAM read bursts, including those serviced by the write queue
system.mem_ctrls.writeBursts                  2780244                       # Number of DRAM write bursts, including those merged in the write queue
system.mem_ctrls.bytesReadDRAM              163982656                       # Total number of bytes read from DRAM
system.mem_ctrls.bytesReadWrQ                15428992                       # Total number of bytes read from write queue
system.mem_ctrls.bytesWritten               168388032                       # Total number of bytes written to DRAM
system.mem_ctrls.bytesReadSys               179411648                       # Total read bytes from the system interface side
system.mem_ctrls.bytesWrittenSys            177935616                       # Total written bytes from the system interface side
system.mem_ctrls.servicedByWrQ                 241078                       # Number of DRAM read bursts serviced by the write queue
system.mem_ctrls.mergedWrBursts                149189                       # Number of DRAM write bursts merged with an existing one
system.mem_ctrls.neitherReadNorWriteReqs            0                       # Number of requests that are neither read nor write
system.mem_ctrls.perBankRdBursts::0            183126                       # Per bank write bursts
system.mem_ctrls.perBankRdBursts::1            166977                       # Per bank write bursts
system.mem_ctrls.perBankRdBursts::2            148017                       # Per bank write bursts
system.mem_ctrls.perBankRdBursts::3            157504                       # Per bank write bursts
system.mem_ctrls.perBankRdBursts::4            159730                       # Per bank write bursts
system.mem_ctrls.perBankRdBursts::5            159812                       # Per bank write bursts
system.mem_ctrls.perBankRdBursts::6            165864                       # Per bank write bursts
system.mem_ctrls.perBankRdBursts::7            151549                       # Per bank write bursts
system.mem_ctrls.perBankRdBursts::8            171139                       # Per bank write bursts
system.mem_ctrls.perBankRdBursts::9            143681                       # Per bank write bursts
system.mem_ctrls.perBankRdBursts::10           154589                       # Per bank write bursts
system.mem_ctrls.perBankRdBursts::11           158392                       # Per bank write bursts
system.mem_ctrls.perBankRdBursts::12           147212                       # Per bank write bursts
system.mem_ctrls.perBankRdBursts::13           154093                       # Per bank write bursts
system.mem_ctrls.perBankRdBursts::14           175902                       # Per bank write bursts
system.mem_ctrls.perBankRdBursts::15           164642                       # Per bank write bursts
system.mem_ctrls.perBankWrBursts::0            191937                       # Per bank write bursts
system.mem_ctrls.perBankWrBursts::1            175930                       # Per bank write bursts
system.mem_ctrls.perBankWrBursts::2            151378                       # Per bank write bursts
system.mem_ctrls.perBankWrBursts::3            158358                       # Per bank write bursts
system.mem_ctrls.perBankWrBursts::4            161918                       # Per bank write bursts
system.mem_ctrls.perBankWrBursts::5            163768                       # Per bank write bursts
system.mem_ctrls.perBankWrBursts::6            175893                       # Per bank write bursts
system.mem_ctrls.perBankWrBursts::7            154682                       # Per bank write bursts
system.mem_ctrls.perBankWrBursts::8            173149                       # Per bank write bursts
system.mem_ctrls.perBankWrBursts::9            145423                       # Per bank write bursts
system.mem_ctrls.perBankWrBursts::10           154893                       # Per bank write bursts
system.mem_ctrls.perBankWrBursts::11           167950                       # Per bank write bursts
system.mem_ctrls.perBankWrBursts::12           148578                       # Per bank write bursts
system.mem_ctrls.perBankWrBursts::13           155474                       # Per bank write bursts
system.mem_ctrls.perBankWrBursts::14           179496                       # Per bank write bursts
system.mem_ctrls.perBankWrBursts::15           172236                       # Per bank write bursts
system.mem_ctrls.numRdRetry                         0                       # Number of times read queue was full causing retry
system.mem_ctrls.numWrRetry                         0                       # Number of times write queue was full causing retry
system.mem_ctrls.totGap                  2419016648500                       # Total gap between requests
system.mem_ctrls.readPktSize::0                     0                       # Read request sizes (log2)
system.mem_ctrls.readPktSize::1                     0                       # Read request sizes (log2)
system.mem_ctrls.readPktSize::2                     0                       # Read request sizes (log2)
system.mem_ctrls.readPktSize::3                     0                       # Read request sizes (log2)
system.mem_ctrls.readPktSize::4                     0                       # Read request sizes (log2)
system.mem_ctrls.readPktSize::5                     0                       # Read request sizes (log2)
system.mem_ctrls.readPktSize::6               2803307                       # Read request sizes (log2)
system.mem_ctrls.writePktSize::0                    0                       # Write request sizes (log2)
system.mem_ctrls.writePktSize::1                    0                       # Write request sizes (log2)
system.mem_ctrls.writePktSize::2                    0                       # Write request sizes (log2)
system.mem_ctrls.writePktSize::3                    0                       # Write request sizes (log2)
system.mem_ctrls.writePktSize::4                    0                       # Write request sizes (log2)
system.mem_ctrls.writePktSize::5                    0                       # Write request sizes (log2)
system.mem_ctrls.writePktSize::6              2780244                       # Write request sizes (log2)
system.mem_ctrls.rdQLenPdf::0                 2539502                       # What read queue length does an incoming req see
system.mem_ctrls.rdQLenPdf::1                   22353                       # What read queue length does an incoming req see
system.mem_ctrls.rdQLenPdf::2                     371                       # What read queue length does an incoming req see
system.mem_ctrls.rdQLenPdf::3                       3                       # What read queue length does an incoming req see
system.mem_ctrls.rdQLenPdf::4                       0                       # What read queue length does an incoming req see
system.mem_ctrls.rdQLenPdf::5                       0                       # What read queue length does an incoming req see
system.mem_ctrls.rdQLenPdf::6                       0                       # What read queue length does an incoming req see
system.mem_ctrls.rdQLenPdf::7                       0                       # What read queue length does an incoming req see
system.mem_ctrls.rdQLenPdf::8                       0                       # What read queue length does an incoming req see
system.mem_ctrls.rdQLenPdf::9                       0                       # What read queue length does an incoming req see
system.mem_ctrls.rdQLenPdf::10                      0                       # What read queue length does an incoming req see
system.mem_ctrls.rdQLenPdf::11                      0                       # What read queue length does an incoming req see
system.mem_ctrls.rdQLenPdf::12                      0                       # What read queue length does an incoming req see
system.mem_ctrls.rdQLenPdf::13                      0                       # What read queue length does an incoming req see
system.mem_ctrls.rdQLenPdf::14                      0                       # What read queue length does an incoming req see
system.mem_ctrls.rdQLenPdf::15                      0                       # What read queue length does an incoming req see
system.mem_ctrls.rdQLenPdf::16                      0                       # What read queue length does an incoming req see
system.mem_ctrls.rdQLenPdf::17                      0                       # What read queue length does an incoming req see
system.mem_ctrls.rdQLenPdf::18                      0                       # What read queue length does an incoming req see
system.mem_ctrls.rdQLenPdf::19                      0                       # What read queue length does an incoming req see
system.mem_ctrls.rdQLenPdf::20                      0                       # What read queue length does an incoming req see
system.mem_ctrls.rdQLenPdf::21                      0                       # What read queue length does an incoming req see
system.mem_ctrls.rdQLenPdf::22                      0                       # What read queue length does an incoming req see
system.mem_ctrls.rdQLenPdf::23                      0                       # What read queue length does an incoming req see
system.mem_ctrls.rdQLenPdf::24                      0                       # What read queue length does an incoming req see
system.mem_ctrls.rdQLenPdf::25                      0                       # What read queue length does an incoming req see
system.mem_ctrls.rdQLenPdf::26                      0                       # What read queue length does an incoming req see
system.mem_ctrls.rdQLenPdf::27                      0                       # What read queue length does an incoming req see
system.mem_ctrls.rdQLenPdf::28                      0                       # What read queue length does an incoming req see
system.mem_ctrls.rdQLenPdf::29                      0                       # What read queue length does an incoming req see
system.mem_ctrls.rdQLenPdf::30                      0                       # What read queue length does an incoming req see
system.mem_ctrls.rdQLenPdf::31                      0                       # What read queue length does an incoming req see
system.mem_ctrls.wrQLenPdf::0                       0                       # What write queue length does an incoming req see
system.mem_ctrls.wrQLenPdf::1                       0                       # What write queue length does an incoming req see
system.mem_ctrls.wrQLenPdf::2                       0                       # What write queue length does an incoming req see
system.mem_ctrls.wrQLenPdf::3                       0                       # What write queue length does an incoming req see
system.mem_ctrls.wrQLenPdf::4                       0                       # What write queue length does an incoming req see
system.mem_ctrls.wrQLenPdf::5                       0                       # What write queue length does an incoming req see
system.mem_ctrls.wrQLenPdf::6                       0                       # What write queue length does an incoming req see
system.mem_ctrls.wrQLenPdf::7                       0                       # What write queue length does an incoming req see
system.mem_ctrls.wrQLenPdf::8                       0                       # What write queue length does an incoming req see
system.mem_ctrls.wrQLenPdf::9                       0                       # What write queue length does an incoming req see
system.mem_ctrls.wrQLenPdf::10                      0                       # What write queue length does an incoming req see
system.mem_ctrls.wrQLenPdf::11                      0                       # What write queue length does an incoming req see
system.mem_ctrls.wrQLenPdf::12                      0                       # What write queue length does an incoming req see
system.mem_ctrls.wrQLenPdf::13                      0                       # What write queue length does an incoming req see
system.mem_ctrls.wrQLenPdf::14                      0                       # What write queue length does an incoming req see
system.mem_ctrls.wrQLenPdf::15                  10189                       # What write queue length does an incoming req see
system.mem_ctrls.wrQLenPdf::16                  11367                       # What write queue length does an incoming req see
system.mem_ctrls.wrQLenPdf::17                 158873                       # What write queue length does an incoming req see
system.mem_ctrls.wrQLenPdf::18                 163132                       # What write queue length does an incoming req see
system.mem_ctrls.wrQLenPdf::19                 163639                       # What write queue length does an incoming req see
system.mem_ctrls.wrQLenPdf::20                 163748                       # What write queue length does an incoming req see
system.mem_ctrls.wrQLenPdf::21                 163925                       # What write queue length does an incoming req see
system.mem_ctrls.wrQLenPdf::22                 164110                       # What write queue length does an incoming req see
system.mem_ctrls.wrQLenPdf::23                 164029                       # What write queue length does an incoming req see
system.mem_ctrls.wrQLenPdf::24                 163792                       # What write queue length does an incoming req see
system.mem_ctrls.wrQLenPdf::25                 163449                       # What write queue length does an incoming req see
system.mem_ctrls.wrQLenPdf::26                 163103                       # What write queue length does an incoming req see
system.mem_ctrls.wrQLenPdf::27                 163016                       # What write queue length does an incoming req see
system.mem_ctrls.wrQLenPdf::28                 162950                       # What write queue length does an incoming req see
system.mem_ctrls.wrQLenPdf::29                 162898                       # What write queue length does an incoming req see
system.mem_ctrls.wrQLenPdf::30                 162853                       # What write queue length does an incoming req see
system.mem_ctrls.wrQLenPdf::31                 162823                       # What write queue length does an incoming req see
system.mem_ctrls.wrQLenPdf::32                 162821                       # What write queue length does an incoming req see
system.mem_ctrls.wrQLenPdf::33                    195                       # What write queue length does an incoming req see
system.mem_ctrls.wrQLenPdf::34                     69                       # What write queue length does an incoming req see
system.mem_ctrls.wrQLenPdf::35                     37                       # What write queue length does an incoming req see
system.mem_ctrls.wrQLenPdf::36                     23                       # What write queue length does an incoming req see
system.mem_ctrls.wrQLenPdf::37                      9                       # What write queue length does an incoming req see
system.mem_ctrls.wrQLenPdf::38                      4                       # What write queue length does an incoming req see
system.mem_ctrls.wrQLenPdf::39                      1                       # What write queue length does an incoming req see
system.mem_ctrls.wrQLenPdf::40                      0                       # What write queue length does an incoming req see
system.mem_ctrls.wrQLenPdf::41                      0                       # What write queue length does an incoming req see
system.mem_ctrls.wrQLenPdf::42                      0                       # What write queue length does an incoming req see
system.mem_ctrls.wrQLenPdf::43                      0                       # What write queue length does an incoming req see
system.mem_ctrls.wrQLenPdf::44                      0                       # What write queue length does an incoming req see
system.mem_ctrls.wrQLenPdf::45                      0                       # What write queue length does an incoming req see
system.mem_ctrls.wrQLenPdf::46                      0                       # What write queue length does an incoming req see
system.mem_ctrls.wrQLenPdf::47                      0                       # What write queue length does an incoming req see
system.mem_ctrls.wrQLenPdf::48                      0                       # What write queue length does an incoming req see
system.mem_ctrls.wrQLenPdf::49                      0                       # What write queue length does an incoming req see
system.mem_ctrls.wrQLenPdf::50                      0                       # What write queue length does an incoming req see
system.mem_ctrls.wrQLenPdf::51                      0                       # What write queue length does an incoming req see
system.mem_ctrls.wrQLenPdf::52                      0                       # What write queue length does an incoming req see
system.mem_ctrls.wrQLenPdf::53                      0                       # What write queue length does an incoming req see
system.mem_ctrls.wrQLenPdf::54                      0                       # What write queue length does an incoming req see
system.mem_ctrls.wrQLenPdf::55                      0                       # What write queue length does an incoming req see
system.mem_ctrls.wrQLenPdf::56                      0                       # What write queue length does an incoming req see
system.mem_ctrls.wrQLenPdf::57                      0                       # What write queue length does an incoming req see
system.mem_ctrls.wrQLenPdf::58                      0                       # What write queue length does an incoming req see
system.mem_ctrls.wrQLenPdf::59                      0                       # What write queue length does an incoming req see
system.mem_ctrls.wrQLenPdf::60                      0                       # What write queue length does an incoming req see
system.mem_ctrls.wrQLenPdf::61                      0                       # What write queue length does an incoming req see
system.mem_ctrls.wrQLenPdf::62                      0                       # What write queue length does an incoming req see
system.mem_ctrls.wrQLenPdf::63                      0                       # What write queue length does an incoming req see
system.mem_ctrls.bytesPerActivate::samples      1856432                       # Bytes accessed per row activation
system.mem_ctrls.bytesPerActivate::mean    179.037362                       # Bytes accessed per row activation
system.mem_ctrls.bytesPerActivate::gmean   130.369606                       # Bytes accessed per row activation
system.mem_ctrls.bytesPerActivate::stdev   179.878304                       # Bytes accessed per row activation
system.mem_ctrls.bytesPerActivate::0-127       778913     41.96%     41.96% # Bytes accessed per row activation
system.mem_ctrls.bytesPerActivate::128-255       641960     34.58%     76.54% # Bytes accessed per row activation
system.mem_ctrls.bytesPerActivate::256-383       253415     13.65%     90.19% # Bytes accessed per row activation
system.mem_ctrls.bytesPerActivate::384-511        73810      3.98%     94.16% # Bytes accessed per row activation
system.mem_ctrls.bytesPerActivate::512-639        35018      1.89%     96.05% # Bytes accessed per row activation
system.mem_ctrls.bytesPerActivate::640-767        19455      1.05%     97.10% # Bytes accessed per row activation
system.mem_ctrls.bytesPerActivate::768-895        13419      0.72%     97.82% # Bytes accessed per row activation
system.mem_ctrls.bytesPerActivate::896-1023         8328      0.45%     98.27% # Bytes accessed per row activation
system.mem_ctrls.bytesPerActivate::1024-1151        32114      1.73%    100.00% # Bytes accessed per row activation
system.mem_ctrls.bytesPerActivate::total      1856432                       # Bytes accessed per row activation
system.mem_ctrls.rdPerTurnAround::samples       162815                       # Reads before turning the bus around for writes
system.mem_ctrls.rdPerTurnAround::mean      15.737107                       # Reads before turning the bus around for writes
system.mem_ctrls.rdPerTurnAround::gmean     15.260379                       # Reads before turning the bus around for writes
system.mem_ctrls.rdPerTurnAround::stdev     10.569092                       # Reads before turning the bus around for writes
system.mem_ctrls.rdPerTurnAround::0-63         162750     99.96%     99.96% # Reads before turning the bus around for writes
system.mem_ctrls.rdPerTurnAround::64-127           37      0.02%     99.98% # Reads before turning the bus around for writes
system.mem_ctrls.rdPerTurnAround::128-191            1      0.00%     99.98% # Reads before turning the bus around for writes
system.mem_ctrls.rdPerTurnAround::192-255            2      0.00%     99.98% # Reads before turning the bus around for writes
system.mem_ctrls.rdPerTurnAround::256-319            3      0.00%     99.99% # Reads before turning the bus around for writes
system.mem_ctrls.rdPerTurnAround::384-447            3      0.00%     99.99% # Reads before turning the bus around for writes
system.mem_ctrls.rdPerTurnAround::448-511            3      0.00%     99.99% # Reads before turning the bus around for writes
system.mem_ctrls.rdPerTurnAround::512-575            2      0.00%     99.99% # Reads before turning the bus around for writes
system.mem_ctrls.rdPerTurnAround::576-639            3      0.00%     99.99% # Reads before turning the bus around for writes
system.mem_ctrls.rdPerTurnAround::640-703            3      0.00%    100.00% # Reads before turning the bus around for writes
system.mem_ctrls.rdPerTurnAround::896-959            2      0.00%    100.00% # Reads before turning the bus around for writes
system.mem_ctrls.rdPerTurnAround::960-1023            2      0.00%    100.00% # Reads before turning the bus around for writes
system.mem_ctrls.rdPerTurnAround::1088-1151            1      0.00%    100.00% # Reads before turning the bus around for writes
system.mem_ctrls.rdPerTurnAround::1216-1279            1      0.00%    100.00% # Reads before turning the bus around for writes
system.mem_ctrls.rdPerTurnAround::1344-1407            1      0.00%    100.00% # Reads before turning the bus around for writes
system.mem_ctrls.rdPerTurnAround::1856-1919            1      0.00%    100.00% # Reads before turning the bus around for writes
system.mem_ctrls.rdPerTurnAround::total        162815                       # Reads before turning the bus around for writes
system.mem_ctrls.wrPerTurnAround::samples       162815                       # Writes before turning the bus around for reads
system.mem_ctrls.wrPerTurnAround::mean      16.159832                       # Writes before turning the bus around for reads
system.mem_ctrls.wrPerTurnAround::gmean     16.149022                       # Writes before turning the bus around for reads
system.mem_ctrls.wrPerTurnAround::stdev      0.621356                       # Writes before turning the bus around for reads
system.mem_ctrls.wrPerTurnAround::16           151619     93.12%     93.12% # Writes before turning the bus around for reads
system.mem_ctrls.wrPerTurnAround::17              450      0.28%     93.40% # Writes before turning the bus around for reads
system.mem_ctrls.wrPerTurnAround::18             7799      4.79%     98.19% # Writes before turning the bus around for reads
system.mem_ctrls.wrPerTurnAround::19             2045      1.26%     99.45% # Writes before turning the bus around for reads
system.mem_ctrls.wrPerTurnAround::20              780      0.48%     99.93% # Writes before turning the bus around for reads
system.mem_ctrls.wrPerTurnAround::21               78      0.05%     99.97% # Writes before turning the bus around for reads
system.mem_ctrls.wrPerTurnAround::22               12      0.01%     99.98% # Writes before turning the bus around for reads
system.mem_ctrls.wrPerTurnAround::23                9      0.01%     99.99% # Writes before turning the bus around for reads
system.mem_ctrls.wrPerTurnAround::24               15      0.01%    100.00% # Writes before turning the bus around for reads
system.mem_ctrls.wrPerTurnAround::25                5      0.00%    100.00% # Writes before turning the bus around for reads
system.mem_ctrls.wrPerTurnAround::26                3      0.00%    100.00% # Writes before turning the bus around for reads
system.mem_ctrls.wrPerTurnAround::total        162815                       # Writes before turning the bus around for reads
system.mem_ctrls.totQLat                  39579480536                       # Total ticks spent queuing
system.mem_ctrls.totMemAccLat             87621274286                       # Total ticks spent from burst creation until serviced by the DRAM
system.mem_ctrls.totBusLat                12811145000                       # Total ticks spent in databus transfers
system.mem_ctrls.avgQLat                     15447.28                       # Average queueing delay per DRAM burst
system.mem_ctrls.avgBusLat                    5000.00                       # Average bus latency per DRAM burst
system.mem_ctrls.avgMemAccLat                34197.28                       # Average memory access latency per DRAM burst
system.mem_ctrls.avgRdBW                        67.79                       # Average DRAM read bandwidth in MiByte/s
system.mem_ctrls.avgWrBW                        69.61                       # Average achieved write bandwidth in MiByte/s
system.mem_ctrls.avgRdBWSys                     74.17                       # Average system read bandwidth in MiByte/s
system.mem_ctrls.avgWrBWSys                     73.56                       # Average system write bandwidth in MiByte/s
system.mem_ctrls.peakBW                      12800.00                       # Theoretical peak bandwidth in MiByte/s
system.mem_ctrls.busUtil                         1.07                       # Data bus utilization in percentage
system.mem_ctrls.busUtilRead                     0.53                       # Data bus utilization in percentage for reads
system.mem_ctrls.busUtilWrite                    0.54                       # Data bus utilization in percentage for writes
system.mem_ctrls.avgRdQLen                       1.00                       # Average read queue length when enqueuing
system.mem_ctrls.avgWrQLen                      25.47                       # Average write queue length when enqueuing
system.mem_ctrls.readRowHits                  1688431                       # Number of row buffer hits during reads
system.mem_ctrls.writeRowHits                 1648425                       # Number of row buffer hits during writes
system.mem_ctrls.readRowHitRate                 65.90                       # Row buffer hit rate for reads
system.mem_ctrls.writeRowHitRate                62.65                       # Row buffer hit rate for writes
system.mem_ctrls.avgGap                     433239.82                       # Average gap between requests
system.mem_ctrls.pageHitRate                    64.25                       # Row buffer hit rate, read and write combined
system.mem_ctrls_0.actEnergy               7408051560                       # Energy for activate commands per rank (pJ)
system.mem_ctrls_0.preEnergy               4042091625                       # Energy for precharge commands per rank (pJ)
system.mem_ctrls_0.readEnergy             10720499400                       # Energy for read commands per rank (pJ)
system.mem_ctrls_0.writeEnergy             9188866800                       # Energy for write commands per rank (pJ)
system.mem_ctrls_0.refreshEnergy         159133509600                       # Energy for refresh commands per rank (pJ)
system.mem_ctrls_0.actBackEnergy         673442631855                       # Energy for active background per rank (pJ)
system.mem_ctrls_0.preBackEnergy         871098299250                       # Energy for precharge background per rank (pJ)
system.mem_ctrls_0.totalEnergy           1735033950090                       # Total energy per rank (pJ)
system.mem_ctrls_0.averagePower            712.131414                       # Core power per rank (mW)
system.mem_ctrls_0.memoryStateTime::IDLE 1444083702752                       # Time in different power states
system.mem_ctrls_0.memoryStateTime::REF   80776280000                       # Time in different power states
system.mem_ctrls_0.memoryStateTime::PRE_PDN            0                       # Time in different power states
system.mem_ctrls_0.memoryStateTime::ACT  894156596998                       # Time in different power states
system.mem_ctrls_0.memoryStateTime::ACT_PDN            0                       # Time in different power states
system.mem_ctrls_1.actEnergy               7218930600                       # Energy for activate commands per rank (pJ)
system.mem_ctrls_1.preEnergy               3938900625                       # Energy for precharge commands per rank (pJ)
system.mem_ctrls_1.readEnergy             10414068600                       # Energy for read commands per rank (pJ)
system.mem_ctrls_1.writeEnergy             8836134480                       # Energy for write commands per rank (pJ)
system.mem_ctrls_1.refreshEnergy         159133509600                       # Energy for refresh commands per rank (pJ)
system.mem_ctrls_1.actBackEnergy         670780835595                       # Energy for active background per rank (pJ)
system.mem_ctrls_1.preBackEnergy         873433206750                       # Energy for precharge background per rank (pJ)
system.mem_ctrls_1.totalEnergy           1733755586250                       # Total energy per rank (pJ)
system.mem_ctrls_1.averagePower            711.606720                       # Core power per rank (mW)
system.mem_ctrls_1.memoryStateTime::IDLE 1447509239253                       # Time in different power states
system.mem_ctrls_1.memoryStateTime::REF   80776280000                       # Time in different power states
system.mem_ctrls_1.memoryStateTime::PRE_PDN            0                       # Time in different power states
system.mem_ctrls_1.memoryStateTime::ACT  890731397497                       # Time in different power states
system.mem_ctrls_1.memoryStateTime::ACT_PDN            0                       # Time in different power states
system.cpu_voltage_domain.voltage                   1                       # Voltage in Volts
system.cpu_clk_domain.clock                       500                       # Clock period in ticks
system.cpu0.apic_clk_domain.clock                8000                       # Clock period in ticks
system.cpu0.numCycles                      4839233962                       # number of cpu cycles simulated
system.cpu0.numWorkItemsStarted                     0                       # number of work items this cpu started
system.cpu0.numWorkItemsCompleted                   0                       # number of work items this cpu completed
system.cpu0.kern.inst.arm                           0                       # number of arm instructions executed
system.cpu0.kern.inst.quiesce                       0                       # number of quiesce instructions executed
system.cpu0.committedInsts                    2114737                       # Number of instructions committed
system.cpu0.committedOps                      4569881                       # Number of ops (including micro ops) committed
system.cpu0.num_int_alu_accesses              4476667                       # Number of integer alu accesses
system.cpu0.num_fp_alu_accesses                    39                       # Number of float alu accesses
system.cpu0.num_func_calls                     131176                       # number of times a function call or return occured
system.cpu0.num_conditional_control_insts       327339                       # number of instructions that are conditional controls
system.cpu0.num_int_insts                     4476667                       # number of integer instructions
system.cpu0.num_fp_insts                           39                       # number of float instructions
system.cpu0.num_int_register_reads            8982030                       # number of times the integer registers were read
system.cpu0.num_int_register_writes           3692400                       # number of times the integer registers were written
system.cpu0.num_fp_register_reads                  63                       # number of times the floating registers were read
system.cpu0.num_fp_register_writes                 31                       # number of times the floating registers were written
system.cpu0.num_cc_register_reads             2636203                       # number of times the CC registers were read
system.cpu0.num_cc_register_writes            1401288                       # number of times the CC registers were written
system.cpu0.num_mem_refs                      1042532                       # number of memory refs
system.cpu0.num_load_insts                     644800                       # Number of load instructions
system.cpu0.num_store_insts                    397732                       # Number of store instructions
system.cpu0.num_idle_cycles              4815579180.043489                       # Number of idle cycles
system.cpu0.num_busy_cycles              23654781.956511                       # Number of busy cycles
system.cpu0.not_idle_fraction                0.004888                       # Percentage of non-idle cycles
system.cpu0.idle_fraction                    0.995112                       # Percentage of idle cycles
system.cpu0.Branches                           498036                       # Number of branches fetched
system.cpu0.op_class::No_OpClass                71850      1.57%      1.57% # Class of executed instruction
system.cpu0.op_class::IntAlu                  3423941     74.92%     76.50% # Class of executed instruction
system.cpu0.op_class::IntMult                    8108      0.18%     76.67% # Class of executed instruction
system.cpu0.op_class::IntDiv                    23442      0.51%     77.19% # Class of executed instruction
system.cpu0.op_class::FloatAdd                     30      0.00%     77.19% # Class of executed instruction
system.cpu0.op_class::FloatCmp                      0      0.00%     77.19% # Class of executed instruction
system.cpu0.op_class::FloatCvt                      0      0.00%     77.19% # Class of executed instruction
system.cpu0.op_class::FloatMult                     0      0.00%     77.19% # Class of executed instruction
system.cpu0.op_class::FloatDiv                      0      0.00%     77.19% # Class of executed instruction
system.cpu0.op_class::FloatSqrt                     0      0.00%     77.19% # Class of executed instruction
system.cpu0.op_class::SimdAdd                       0      0.00%     77.19% # Class of executed instruction
system.cpu0.op_class::SimdAddAcc                    0      0.00%     77.19% # Class of executed instruction
system.cpu0.op_class::SimdAlu                       0      0.00%     77.19% # Class of executed instruction
system.cpu0.op_class::SimdCmp                       0      0.00%     77.19% # Class of executed instruction
system.cpu0.op_class::SimdCvt                       0      0.00%     77.19% # Class of executed instruction
system.cpu0.op_class::SimdMisc                      0      0.00%     77.19% # Class of executed instruction
system.cpu0.op_class::SimdMult                      0      0.00%     77.19% # Class of executed instruction
system.cpu0.op_class::SimdMultAcc                   0      0.00%     77.19% # Class of executed instruction
system.cpu0.op_class::SimdShift                     0      0.00%     77.19% # Class of executed instruction
system.cpu0.op_class::SimdShiftAcc                  0      0.00%     77.19% # Class of executed instruction
system.cpu0.op_class::SimdSqrt                      0      0.00%     77.19% # Class of executed instruction
system.cpu0.op_class::SimdFloatAdd                  0      0.00%     77.19% # Class of executed instruction
system.cpu0.op_class::SimdFloatAlu                  0      0.00%     77.19% # Class of executed instruction
system.cpu0.op_class::SimdFloatCmp                  0      0.00%     77.19% # Class of executed instruction
system.cpu0.op_class::SimdFloatCvt                  0      0.00%     77.19% # Class of executed instruction
system.cpu0.op_class::SimdFloatDiv                  0      0.00%     77.19% # Class of executed instruction
system.cpu0.op_class::SimdFloatMisc                 0      0.00%     77.19% # Class of executed instruction
system.cpu0.op_class::SimdFloatMult                 0      0.00%     77.19% # Class of executed instruction
system.cpu0.op_class::SimdFloatMultAcc              0      0.00%     77.19% # Class of executed instruction
system.cpu0.op_class::SimdFloatSqrt                 0      0.00%     77.19% # Class of executed instruction
system.cpu0.op_class::MemRead                  644800     14.11%     91.30% # Class of executed instruction
system.cpu0.op_class::MemWrite                 397732      8.70%    100.00% # Class of executed instruction
system.cpu0.op_class::IprAccess                     0      0.00%    100.00% # Class of executed instruction
system.cpu0.op_class::InstPrefetch                  0      0.00%    100.00% # Class of executed instruction
system.cpu0.op_class::total                   4569903                       # Class of executed instruction
system.cpu1.apic_clk_domain.clock                8000                       # Clock period in ticks
system.cpu1.numCycles                      4841923149                       # number of cpu cycles simulated
system.cpu1.numWorkItemsStarted                     0                       # number of work items this cpu started
system.cpu1.numWorkItemsCompleted                   0                       # number of work items this cpu completed
system.cpu1.kern.inst.arm                           0                       # number of arm instructions executed
system.cpu1.kern.inst.quiesce                       0                       # number of quiesce instructions executed
system.cpu1.committedInsts                    4155079                       # Number of instructions committed
system.cpu1.committedOps                      8504823                       # Number of ops (including micro ops) committed
system.cpu1.num_int_alu_accesses              8273424                       # Number of integer alu accesses
system.cpu1.num_fp_alu_accesses                   372                       # Number of float alu accesses
system.cpu1.num_func_calls                     184974                       # number of times a function call or return occured
system.cpu1.num_conditional_control_insts       697523                       # number of instructions that are conditional controls
system.cpu1.num_int_insts                     8273424                       # number of integer instructions
system.cpu1.num_fp_insts                          372                       # number of float instructions
system.cpu1.num_int_register_reads           16076252                       # number of times the integer registers were read
system.cpu1.num_int_register_writes           6815677                       # number of times the integer registers were written
system.cpu1.num_fp_register_reads                 596                       # number of times the floating registers were read
system.cpu1.num_fp_register_writes                261                       # number of times the floating registers were written
system.cpu1.num_cc_register_reads             5256028                       # number of times the CC registers were read
system.cpu1.num_cc_register_writes            3151507                       # number of times the CC registers were written
system.cpu1.num_mem_refs                      1708095                       # number of memory refs
system.cpu1.num_load_insts                    1069869                       # Number of load instructions
system.cpu1.num_store_insts                    638226                       # Number of store instructions
system.cpu1.num_idle_cycles              4805789758.593837                       # Number of idle cycles
system.cpu1.num_busy_cycles              36133390.406163                       # Number of busy cycles
system.cpu1.not_idle_fraction                0.007463                       # Percentage of non-idle cycles
system.cpu1.idle_fraction                    0.992537                       # Percentage of idle cycles
system.cpu1.Branches                           948864                       # Number of branches fetched
system.cpu1.op_class::No_OpClass                84633      1.00%      1.00% # Class of executed instruction
system.cpu1.op_class::IntAlu                  6675893     78.49%     79.49% # Class of executed instruction
system.cpu1.op_class::IntMult                    9955      0.12%     79.61% # Class of executed instruction
system.cpu1.op_class::IntDiv                    26088      0.31%     79.91% # Class of executed instruction
system.cpu1.op_class::FloatAdd                    244      0.00%     79.92% # Class of executed instruction
system.cpu1.op_class::FloatCmp                      0      0.00%     79.92% # Class of executed instruction
system.cpu1.op_class::FloatCvt                      0      0.00%     79.92% # Class of executed instruction
system.cpu1.op_class::FloatMult                     0      0.00%     79.92% # Class of executed instruction
system.cpu1.op_class::FloatDiv                      0      0.00%     79.92% # Class of executed instruction
system.cpu1.op_class::FloatSqrt                     0      0.00%     79.92% # Class of executed instruction
system.cpu1.op_class::SimdAdd                       0      0.00%     79.92% # Class of executed instruction
system.cpu1.op_class::SimdAddAcc                    0      0.00%     79.92% # Class of executed instruction
system.cpu1.op_class::SimdAlu                       0      0.00%     79.92% # Class of executed instruction
system.cpu1.op_class::SimdCmp                       0      0.00%     79.92% # Class of executed instruction
system.cpu1.op_class::SimdCvt                       0      0.00%     79.92% # Class of executed instruction
system.cpu1.op_class::SimdMisc                      0      0.00%     79.92% # Class of executed instruction
system.cpu1.op_class::SimdMult                      0      0.00%     79.92% # Class of executed instruction
system.cpu1.op_class::SimdMultAcc                   0      0.00%     79.92% # Class of executed instruction
system.cpu1.op_class::SimdShift                     0      0.00%     79.92% # Class of executed instruction
system.cpu1.op_class::SimdShiftAcc                  0      0.00%     79.92% # Class of executed instruction
system.cpu1.op_class::SimdSqrt                      0      0.00%     79.92% # Class of executed instruction
system.cpu1.op_class::SimdFloatAdd                  0      0.00%     79.92% # Class of executed instruction
system.cpu1.op_class::SimdFloatAlu                  0      0.00%     79.92% # Class of executed instruction
system.cpu1.op_class::SimdFloatCmp                  0      0.00%     79.92% # Class of executed instruction
system.cpu1.op_class::SimdFloatCvt                  0      0.00%     79.92% # Class of executed instruction
system.cpu1.op_class::SimdFloatDiv                  0      0.00%     79.92% # Class of executed instruction
system.cpu1.op_class::SimdFloatMisc                 0      0.00%     79.92% # Class of executed instruction
system.cpu1.op_class::SimdFloatMult                 0      0.00%     79.92% # Class of executed instruction
system.cpu1.op_class::SimdFloatMultAcc              0      0.00%     79.92% # Class of executed instruction
system.cpu1.op_class::SimdFloatSqrt                 0      0.00%     79.92% # Class of executed instruction
system.cpu1.op_class::MemRead                 1069869     12.58%     92.50% # Class of executed instruction
system.cpu1.op_class::MemWrite                 638226      7.50%    100.00% # Class of executed instruction
system.cpu1.op_class::IprAccess                     0      0.00%    100.00% # Class of executed instruction
system.cpu1.op_class::InstPrefetch                  0      0.00%    100.00% # Class of executed instruction
system.cpu1.op_class::total                   8504908                       # Class of executed instruction
system.cpu2.apic_clk_domain.clock                8000                       # Clock period in ticks
system.cpu2.numCycles                      4837303211                       # number of cpu cycles simulated
system.cpu2.numWorkItemsStarted                     0                       # number of work items this cpu started
system.cpu2.numWorkItemsCompleted                   0                       # number of work items this cpu completed
system.cpu2.kern.inst.arm                           0                       # number of arm instructions executed
system.cpu2.kern.inst.quiesce                       0                       # number of quiesce instructions executed
system.cpu2.committedInsts                 1297222748                       # Number of instructions committed
system.cpu2.committedOps                   2348191358                       # Number of ops (including micro ops) committed
system.cpu2.num_int_alu_accesses           1506228146                       # Number of integer alu accesses
system.cpu2.num_fp_alu_accesses            1130300518                       # Number of float alu accesses
system.cpu2.num_func_calls                     783133                       # number of times a function call or return occured
system.cpu2.num_conditional_control_insts    160842603                       # number of instructions that are conditional controls
system.cpu2.num_int_insts                  1506228146                       # number of integer instructions
system.cpu2.num_fp_insts                   1130300518                       # number of float instructions
system.cpu2.num_int_register_reads         2939157795                       # number of times the integer registers were read
system.cpu2.num_int_register_writes        1033390953                       # number of times the integer registers were written
system.cpu2.num_fp_register_reads          1382500686                       # number of times the floating registers were read
system.cpu2.num_fp_register_writes         1075410587                       # number of times the floating registers were written
system.cpu2.num_cc_register_reads           938719354                       # number of times the CC registers were read
system.cpu2.num_cc_register_writes          527885949                       # number of times the CC registers were written
system.cpu2.num_mem_refs                    388222157                       # number of memory refs
system.cpu2.num_load_insts                  349882827                       # Number of load instructions
system.cpu2.num_store_insts                  38339330                       # Number of store instructions
system.cpu2.num_idle_cycles              34638559.026997                       # Number of idle cycles
system.cpu2.num_busy_cycles              4802664651.973002                       # Number of busy cycles
system.cpu2.not_idle_fraction                0.992839                       # Percentage of non-idle cycles
system.cpu2.idle_fraction                    0.007161                       # Percentage of idle cycles
system.cpu2.Branches                        166211582                       # Number of branches fetched
system.cpu2.op_class::No_OpClass              3897413      0.17%      0.17% # Class of executed instruction
system.cpu2.op_class::IntAlu               1228375793     52.31%     52.48% # Class of executed instruction
system.cpu2.op_class::IntMult                 4267160      0.18%     52.66% # Class of executed instruction
system.cpu2.op_class::IntDiv                      728      0.00%     52.66% # Class of executed instruction
system.cpu2.op_class::FloatAdd              723444434     30.81%     83.47% # Class of executed instruction
system.cpu2.op_class::FloatCmp                      0      0.00%     83.47% # Class of executed instruction
system.cpu2.op_class::FloatCvt                      0      0.00%     83.47% # Class of executed instruction
system.cpu2.op_class::FloatMult                     0      0.00%     83.47% # Class of executed instruction
system.cpu2.op_class::FloatDiv                      0      0.00%     83.47% # Class of executed instruction
system.cpu2.op_class::FloatSqrt                     0      0.00%     83.47% # Class of executed instruction
system.cpu2.op_class::SimdAdd                       0      0.00%     83.47% # Class of executed instruction
system.cpu2.op_class::SimdAddAcc                    0      0.00%     83.47% # Class of executed instruction
system.cpu2.op_class::SimdAlu                       0      0.00%     83.47% # Class of executed instruction
system.cpu2.op_class::SimdCmp                       0      0.00%     83.47% # Class of executed instruction
system.cpu2.op_class::SimdCvt                       0      0.00%     83.47% # Class of executed instruction
system.cpu2.op_class::SimdMisc                      0      0.00%     83.47% # Class of executed instruction
system.cpu2.op_class::SimdMult                      0      0.00%     83.47% # Class of executed instruction
system.cpu2.op_class::SimdMultAcc                   0      0.00%     83.47% # Class of executed instruction
system.cpu2.op_class::SimdShift                     0      0.00%     83.47% # Class of executed instruction
system.cpu2.op_class::SimdShiftAcc                  0      0.00%     83.47% # Class of executed instruction
system.cpu2.op_class::SimdSqrt                      0      0.00%     83.47% # Class of executed instruction
system.cpu2.op_class::SimdFloatAdd                  0      0.00%     83.47% # Class of executed instruction
system.cpu2.op_class::SimdFloatAlu                  0      0.00%     83.47% # Class of executed instruction
system.cpu2.op_class::SimdFloatCmp                  0      0.00%     83.47% # Class of executed instruction
system.cpu2.op_class::SimdFloatCvt                  0      0.00%     83.47% # Class of executed instruction
system.cpu2.op_class::SimdFloatDiv                  0      0.00%     83.47% # Class of executed instruction
system.cpu2.op_class::SimdFloatMisc                 0      0.00%     83.47% # Class of executed instruction
system.cpu2.op_class::SimdFloatMult                 0      0.00%     83.47% # Class of executed instruction
system.cpu2.op_class::SimdFloatMultAcc              0      0.00%     83.47% # Class of executed instruction
system.cpu2.op_class::SimdFloatSqrt                 0      0.00%     83.47% # Class of executed instruction
system.cpu2.op_class::MemRead               349882827     14.90%     98.37% # Class of executed instruction
system.cpu2.op_class::MemWrite               38339330      1.63%    100.00% # Class of executed instruction
system.cpu2.op_class::IprAccess                     0      0.00%    100.00% # Class of executed instruction
system.cpu2.op_class::InstPrefetch                  0      0.00%    100.00% # Class of executed instruction
system.cpu2.op_class::total                2348207685                       # Class of executed instruction
system.cpu3.apic_clk_domain.clock                8000                       # Clock period in ticks
system.cpu3.numCycles                      4836034562                       # number of cpu cycles simulated
system.cpu3.numWorkItemsStarted                     0                       # number of work items this cpu started
system.cpu3.numWorkItemsCompleted                   0                       # number of work items this cpu completed
system.cpu3.kern.inst.arm                           0                       # number of arm instructions executed
system.cpu3.kern.inst.quiesce                       0                       # number of quiesce instructions executed
system.cpu3.committedInsts                    4770354                       # Number of instructions committed
system.cpu3.committedOps                      9607994                       # Number of ops (including micro ops) committed
system.cpu3.num_int_alu_accesses              9435220                       # Number of integer alu accesses
system.cpu3.num_fp_alu_accesses                  1778                       # Number of float alu accesses
system.cpu3.num_func_calls                     247622                       # number of times a function call or return occured
system.cpu3.num_conditional_control_insts       830111                       # number of instructions that are conditional controls
system.cpu3.num_int_insts                     9435220                       # number of integer instructions
system.cpu3.num_fp_insts                         1778                       # number of float instructions
system.cpu3.num_int_register_reads           18648801                       # number of times the integer registers were read
system.cpu3.num_int_register_writes           7682392                       # number of times the integer registers were written
system.cpu3.num_fp_register_reads                2988                       # number of times the floating registers were read
system.cpu3.num_fp_register_writes               1416                       # number of times the floating registers were written
system.cpu3.num_cc_register_reads             6193244                       # number of times the CC registers were read
system.cpu3.num_cc_register_writes            3276652                       # number of times the CC registers were written
system.cpu3.num_mem_refs                      2129084                       # number of memory refs
system.cpu3.num_load_insts                    1379427                       # Number of load instructions
system.cpu3.num_store_insts                    749657                       # Number of store instructions
system.cpu3.num_idle_cycles              4796672175.550624                       # Number of idle cycles
system.cpu3.num_busy_cycles              39362386.449376                       # Number of busy cycles
system.cpu3.not_idle_fraction                0.008139                       # Percentage of non-idle cycles
system.cpu3.idle_fraction                    0.991861                       # Percentage of idle cycles
system.cpu3.Branches                          1124325                       # Number of branches fetched
system.cpu3.op_class::No_OpClass                75883      0.79%      0.79% # Class of executed instruction
system.cpu3.op_class::IntAlu                  7367315     76.68%     77.47% # Class of executed instruction
system.cpu3.op_class::IntMult                    8638      0.09%     77.56% # Class of executed instruction
system.cpu3.op_class::IntDiv                    25818      0.27%     77.83% # Class of executed instruction
system.cpu3.op_class::FloatAdd                   1344      0.01%     77.84% # Class of executed instruction
system.cpu3.op_class::FloatCmp                      0      0.00%     77.84% # Class of executed instruction
system.cpu3.op_class::FloatCvt                      0      0.00%     77.84% # Class of executed instruction
system.cpu3.op_class::FloatMult                     0      0.00%     77.84% # Class of executed instruction
system.cpu3.op_class::FloatDiv                      0      0.00%     77.84% # Class of executed instruction
system.cpu3.op_class::FloatSqrt                     0      0.00%     77.84% # Class of executed instruction
system.cpu3.op_class::SimdAdd                       0      0.00%     77.84% # Class of executed instruction
system.cpu3.op_class::SimdAddAcc                    0      0.00%     77.84% # Class of executed instruction
system.cpu3.op_class::SimdAlu                       0      0.00%     77.84% # Class of executed instruction
system.cpu3.op_class::SimdCmp                       0      0.00%     77.84% # Class of executed instruction
system.cpu3.op_class::SimdCvt                       0      0.00%     77.84% # Class of executed instruction
system.cpu3.op_class::SimdMisc                      0      0.00%     77.84% # Class of executed instruction
system.cpu3.op_class::SimdMult                      0      0.00%     77.84% # Class of executed instruction
system.cpu3.op_class::SimdMultAcc                   0      0.00%     77.84% # Class of executed instruction
system.cpu3.op_class::SimdShift                     0      0.00%     77.84% # Class of executed instruction
system.cpu3.op_class::SimdShiftAcc                  0      0.00%     77.84% # Class of executed instruction
system.cpu3.op_class::SimdSqrt                      0      0.00%     77.84% # Class of executed instruction
system.cpu3.op_class::SimdFloatAdd                  0      0.00%     77.84% # Class of executed instruction
system.cpu3.op_class::SimdFloatAlu                  0      0.00%     77.84% # Class of executed instruction
system.cpu3.op_class::SimdFloatCmp                  0      0.00%     77.84% # Class of executed instruction
system.cpu3.op_class::SimdFloatCvt                  0      0.00%     77.84% # Class of executed instruction
system.cpu3.op_class::SimdFloatDiv                  0      0.00%     77.84% # Class of executed instruction
system.cpu3.op_class::SimdFloatMisc                 0      0.00%     77.84% # Class of executed instruction
system.cpu3.op_class::SimdFloatMult                 0      0.00%     77.84% # Class of executed instruction
system.cpu3.op_class::SimdFloatMultAcc              0      0.00%     77.84% # Class of executed instruction
system.cpu3.op_class::SimdFloatSqrt                 0      0.00%     77.84% # Class of executed instruction
system.cpu3.op_class::MemRead                 1379427     14.36%     92.20% # Class of executed instruction
system.cpu3.op_class::MemWrite                 749657      7.80%    100.00% # Class of executed instruction
system.cpu3.op_class::IprAccess                     0      0.00%    100.00% # Class of executed instruction
system.cpu3.op_class::InstPrefetch                  0      0.00%    100.00% # Class of executed instruction
system.cpu3.op_class::total                   9608082                       # Class of executed instruction
system.iobus.trans_dist::ReadReq                  404                       # Transaction distribution
system.iobus.trans_dist::ReadResp                 404                       # Transaction distribution
system.iobus.trans_dist::WriteReq                3129                       # Transaction distribution
system.iobus.trans_dist::WriteResp               3129                       # Transaction distribution
system.iobus.trans_dist::MessageReq                56                       # Transaction distribution
system.iobus.trans_dist::MessageResp               56                       # Transaction distribution
system.iobus.pkt_count_system.pc.south_bridge.io_apic.int_master::system.ruby.l1_cntrl0.sequencer.pio-slave-port           22                       # Packet count per connected master and slave (bytes)
system.iobus.pkt_count_system.pc.south_bridge.io_apic.int_master::system.ruby.l1_cntrl1.sequencer.pio-slave-port           22                       # Packet count per connected master and slave (bytes)
system.iobus.pkt_count_system.pc.south_bridge.io_apic.int_master::system.ruby.l1_cntrl2.sequencer.pio-slave-port           22                       # Packet count per connected master and slave (bytes)
system.iobus.pkt_count_system.pc.south_bridge.io_apic.int_master::system.ruby.l1_cntrl3.sequencer.pio-slave-port           24                       # Packet count per connected master and slave (bytes)
system.iobus.pkt_count_system.pc.south_bridge.io_apic.int_master::total           90                       # Packet count per connected master and slave (bytes)
system.iobus.pkt_count_system.ruby.l1_cntrl0.sequencer.mem-master-port::system.pc.south_bridge.ide.pio          392                       # Packet count per connected master and slave (bytes)
system.iobus.pkt_count_system.ruby.l1_cntrl0.sequencer.mem-master-port::system.pc.south_bridge.io_apic.pio            8                       # Packet count per connected master and slave (bytes)
system.iobus.pkt_count_system.ruby.l1_cntrl0.sequencer.mem-master-port::system.pc.com_1.pio            2                       # Packet count per connected master and slave (bytes)
system.iobus.pkt_count_system.ruby.l1_cntrl0.sequencer.mem-master-port::system.ruby.l1_cntrl0.sequencer.pio-slave-port         1242                       # Packet count per connected master and slave (bytes)
system.iobus.pkt_count_system.ruby.l1_cntrl0.sequencer.mem-master-port::system.ruby.l1_cntrl1.sequencer.pio-slave-port            2                       # Packet count per connected master and slave (bytes)
system.iobus.pkt_count_system.ruby.l1_cntrl0.sequencer.mem-master-port::total         1646                       # Packet count per connected master and slave (bytes)
system.iobus.pkt_count_system.ruby.l1_cntrl1.sequencer.mem-master-port::system.pc.south_bridge.ide.pio          630                       # Packet count per connected master and slave (bytes)
system.iobus.pkt_count_system.ruby.l1_cntrl1.sequencer.mem-master-port::system.pc.south_bridge.io_apic.pio            8                       # Packet count per connected master and slave (bytes)
system.iobus.pkt_count_system.ruby.l1_cntrl1.sequencer.mem-master-port::system.ruby.l1_cntrl0.sequencer.pio-slave-port            2                       # Packet count per connected master and slave (bytes)
system.iobus.pkt_count_system.ruby.l1_cntrl1.sequencer.mem-master-port::system.ruby.l1_cntrl1.sequencer.pio-slave-port         1264                       # Packet count per connected master and slave (bytes)
system.iobus.pkt_count_system.ruby.l1_cntrl1.sequencer.mem-master-port::system.ruby.l1_cntrl2.sequencer.pio-slave-port            6                       # Packet count per connected master and slave (bytes)
system.iobus.pkt_count_system.ruby.l1_cntrl1.sequencer.mem-master-port::total         1910                       # Packet count per connected master and slave (bytes)
system.iobus.pkt_count_system.ruby.l1_cntrl2.sequencer.mem-master-port::system.pc.south_bridge.ide.pio          358                       # Packet count per connected master and slave (bytes)
system.iobus.pkt_count_system.ruby.l1_cntrl2.sequencer.mem-master-port::system.pc.south_bridge.io_apic.pio            8                       # Packet count per connected master and slave (bytes)
system.iobus.pkt_count_system.ruby.l1_cntrl2.sequencer.mem-master-port::system.ruby.l1_cntrl1.sequencer.pio-slave-port            4                       # Packet count per connected master and slave (bytes)
system.iobus.pkt_count_system.ruby.l1_cntrl2.sequencer.mem-master-port::system.ruby.l1_cntrl2.sequencer.pio-slave-port         1258                       # Packet count per connected master and slave (bytes)
system.iobus.pkt_count_system.ruby.l1_cntrl2.sequencer.mem-master-port::system.ruby.l1_cntrl3.sequencer.pio-slave-port            2                       # Packet count per connected master and slave (bytes)
system.iobus.pkt_count_system.ruby.l1_cntrl2.sequencer.mem-master-port::total         1630                       # Packet count per connected master and slave (bytes)
system.iobus.pkt_count_system.ruby.l1_cntrl3.sequencer.mem-master-port::system.pc.south_bridge.ide.pio          460                       # Packet count per connected master and slave (bytes)
system.iobus.pkt_count_system.ruby.l1_cntrl3.sequencer.mem-master-port::system.pc.south_bridge.io_apic.pio            6                       # Packet count per connected master and slave (bytes)
system.iobus.pkt_count_system.ruby.l1_cntrl3.sequencer.mem-master-port::system.pc.com_1.pio          176                       # Packet count per connected master and slave (bytes)
system.iobus.pkt_count_system.ruby.l1_cntrl3.sequencer.mem-master-port::system.ruby.l1_cntrl0.sequencer.pio-slave-port            2                       # Packet count per connected master and slave (bytes)
system.iobus.pkt_count_system.ruby.l1_cntrl3.sequencer.mem-master-port::system.ruby.l1_cntrl1.sequencer.pio-slave-port            2                       # Packet count per connected master and slave (bytes)
system.iobus.pkt_count_system.ruby.l1_cntrl3.sequencer.mem-master-port::system.ruby.l1_cntrl2.sequencer.pio-slave-port            2                       # Packet count per connected master and slave (bytes)
system.iobus.pkt_count_system.ruby.l1_cntrl3.sequencer.mem-master-port::system.ruby.l1_cntrl3.sequencer.pio-slave-port         1254                       # Packet count per connected master and slave (bytes)
system.iobus.pkt_count_system.ruby.l1_cntrl3.sequencer.mem-master-port::total         1902                       # Packet count per connected master and slave (bytes)
system.iobus.pkt_count::total                    7178                       # Packet count per connected master and slave (bytes)
system.iobus.pkt_size_system.pc.south_bridge.io_apic.int_master::system.ruby.l1_cntrl0.sequencer.pio-slave-port           44                       # Cumulative packet size per connected master and slave (bytes)
system.iobus.pkt_size_system.pc.south_bridge.io_apic.int_master::system.ruby.l1_cntrl1.sequencer.pio-slave-port           44                       # Cumulative packet size per connected master and slave (bytes)
system.iobus.pkt_size_system.pc.south_bridge.io_apic.int_master::system.ruby.l1_cntrl2.sequencer.pio-slave-port           44                       # Cumulative packet size per connected master and slave (bytes)
system.iobus.pkt_size_system.pc.south_bridge.io_apic.int_master::system.ruby.l1_cntrl3.sequencer.pio-slave-port           48                       # Cumulative packet size per connected master and slave (bytes)
system.iobus.pkt_size_system.pc.south_bridge.io_apic.int_master::total          180                       # Cumulative packet size per connected master and slave (bytes)
system.iobus.pkt_size_system.ruby.l1_cntrl0.sequencer.mem-master-port::system.pc.south_bridge.ide.pio          220                       # Cumulative packet size per connected master and slave (bytes)
system.iobus.pkt_size_system.ruby.l1_cntrl0.sequencer.mem-master-port::system.pc.south_bridge.io_apic.pio           16                       # Cumulative packet size per connected master and slave (bytes)
system.iobus.pkt_size_system.ruby.l1_cntrl0.sequencer.mem-master-port::system.pc.com_1.pio            1                       # Cumulative packet size per connected master and slave (bytes)
system.iobus.pkt_size_system.ruby.l1_cntrl0.sequencer.mem-master-port::system.ruby.l1_cntrl0.sequencer.pio-slave-port         2484                       # Cumulative packet size per connected master and slave (bytes)
system.iobus.pkt_size_system.ruby.l1_cntrl0.sequencer.mem-master-port::system.ruby.l1_cntrl1.sequencer.pio-slave-port            4                       # Cumulative packet size per connected master and slave (bytes)
system.iobus.pkt_size_system.ruby.l1_cntrl0.sequencer.mem-master-port::total         2725                       # Cumulative packet size per connected master and slave (bytes)
system.iobus.pkt_size_system.ruby.l1_cntrl1.sequencer.mem-master-port::system.pc.south_bridge.ide.pio          360                       # Cumulative packet size per connected master and slave (bytes)
system.iobus.pkt_size_system.ruby.l1_cntrl1.sequencer.mem-master-port::system.pc.south_bridge.io_apic.pio           16                       # Cumulative packet size per connected master and slave (bytes)
system.iobus.pkt_size_system.ruby.l1_cntrl1.sequencer.mem-master-port::system.ruby.l1_cntrl0.sequencer.pio-slave-port            4                       # Cumulative packet size per connected master and slave (bytes)
system.iobus.pkt_size_system.ruby.l1_cntrl1.sequencer.mem-master-port::system.ruby.l1_cntrl1.sequencer.pio-slave-port         2528                       # Cumulative packet size per connected master and slave (bytes)
system.iobus.pkt_size_system.ruby.l1_cntrl1.sequencer.mem-master-port::system.ruby.l1_cntrl2.sequencer.pio-slave-port           12                       # Cumulative packet size per connected master and slave (bytes)
system.iobus.pkt_size_system.ruby.l1_cntrl1.sequencer.mem-master-port::total         2920                       # Cumulative packet size per connected master and slave (bytes)
system.iobus.pkt_size_system.ruby.l1_cntrl2.sequencer.mem-master-port::system.pc.south_bridge.ide.pio          200                       # Cumulative packet size per connected master and slave (bytes)
system.iobus.pkt_size_system.ruby.l1_cntrl2.sequencer.mem-master-port::system.pc.south_bridge.io_apic.pio           16                       # Cumulative packet size per connected master and slave (bytes)
system.iobus.pkt_size_system.ruby.l1_cntrl2.sequencer.mem-master-port::system.ruby.l1_cntrl1.sequencer.pio-slave-port            8                       # Cumulative packet size per connected master and slave (bytes)
system.iobus.pkt_size_system.ruby.l1_cntrl2.sequencer.mem-master-port::system.ruby.l1_cntrl2.sequencer.pio-slave-port         2516                       # Cumulative packet size per connected master and slave (bytes)
system.iobus.pkt_size_system.ruby.l1_cntrl2.sequencer.mem-master-port::system.ruby.l1_cntrl3.sequencer.pio-slave-port            4                       # Cumulative packet size per connected master and slave (bytes)
system.iobus.pkt_size_system.ruby.l1_cntrl2.sequencer.mem-master-port::total         2744                       # Cumulative packet size per connected master and slave (bytes)
system.iobus.pkt_size_system.ruby.l1_cntrl3.sequencer.mem-master-port::system.pc.south_bridge.ide.pio          260                       # Cumulative packet size per connected master and slave (bytes)
system.iobus.pkt_size_system.ruby.l1_cntrl3.sequencer.mem-master-port::system.pc.south_bridge.io_apic.pio           12                       # Cumulative packet size per connected master and slave (bytes)
system.iobus.pkt_size_system.ruby.l1_cntrl3.sequencer.mem-master-port::system.pc.com_1.pio           88                       # Cumulative packet size per connected master and slave (bytes)
system.iobus.pkt_size_system.ruby.l1_cntrl3.sequencer.mem-master-port::system.ruby.l1_cntrl0.sequencer.pio-slave-port            4                       # Cumulative packet size per connected master and slave (bytes)
system.iobus.pkt_size_system.ruby.l1_cntrl3.sequencer.mem-master-port::system.ruby.l1_cntrl1.sequencer.pio-slave-port            4                       # Cumulative packet size per connected master and slave (bytes)
system.iobus.pkt_size_system.ruby.l1_cntrl3.sequencer.mem-master-port::system.ruby.l1_cntrl2.sequencer.pio-slave-port            4                       # Cumulative packet size per connected master and slave (bytes)
system.iobus.pkt_size_system.ruby.l1_cntrl3.sequencer.mem-master-port::system.ruby.l1_cntrl3.sequencer.pio-slave-port         2508                       # Cumulative packet size per connected master and slave (bytes)
system.iobus.pkt_size_system.ruby.l1_cntrl3.sequencer.mem-master-port::total         2880                       # Cumulative packet size per connected master and slave (bytes)
system.iobus.pkt_size::total                    11449                       # Cumulative packet size per connected master and slave (bytes)
system.iobus.reqLayer2.occupancy              1653500                       # Layer occupancy (ticks)
system.iobus.reqLayer2.utilization                0.0                       # Layer utilization (%)
system.iobus.reqLayer8.occupancy                26996                       # Layer occupancy (ticks)
system.iobus.reqLayer8.utilization                0.0                       # Layer utilization (%)
system.iobus.reqLayer12.occupancy              114000                       # Layer occupancy (ticks)
system.iobus.reqLayer12.utilization               0.0                       # Layer utilization (%)
system.iobus.reqLayer17.occupancy             1471990                       # Layer occupancy (ticks)
system.iobus.reqLayer17.utilization               0.0                       # Layer utilization (%)
system.iobus.reqLayer18.occupancy             1330989                       # Layer occupancy (ticks)
system.iobus.reqLayer18.utilization               0.0                       # Layer utilization (%)
system.iobus.reqLayer19.occupancy             1720456                       # Layer occupancy (ticks)
system.iobus.reqLayer19.utilization               0.0                       # Layer utilization (%)
system.iobus.reqLayer20.occupancy             1541988                       # Layer occupancy (ticks)
system.iobus.reqLayer20.utilization               0.0                       # Layer utilization (%)
system.iobus.respLayer0.occupancy               75960                       # Layer occupancy (ticks)
system.iobus.respLayer0.utilization               0.0                       # Layer utilization (%)
system.iobus.respLayer2.occupancy             1209000                       # Layer occupancy (ticks)
system.iobus.respLayer2.utilization               0.0                       # Layer utilization (%)
system.iobus.respLayer4.occupancy             1377500                       # Layer occupancy (ticks)
system.iobus.respLayer4.utilization               0.0                       # Layer utilization (%)
system.iobus.respLayer6.occupancy             1203000                       # Layer occupancy (ticks)
system.iobus.respLayer6.utilization               0.0                       # Layer utilization (%)
system.iobus.respLayer8.occupancy             1414500                       # Layer occupancy (ticks)
system.iobus.respLayer8.utilization               0.0                       # Layer utilization (%)
system.pc.south_bridge.ide.disks.dma_read_full_pages          356                       # Number of full page size DMA reads (not PRD).
system.pc.south_bridge.ide.disks.dma_read_bytes      1458176                       # Number of bytes transfered via DMA reads (not PRD).
system.pc.south_bridge.ide.disks.dma_read_txs          356                       # Number of DMA read transactions (not PRD).
system.pc.south_bridge.ide.disks.dma_write_full_pages            0                       # Number of full page size DMA writes.
system.pc.south_bridge.ide.disks.dma_write_bytes            0                       # Number of bytes transfered via DMA writes.
system.pc.south_bridge.ide.disks.dma_write_txs            0                       # Number of DMA write transactions.
system.ruby.clk_domain.clock                      500                       # Clock period in ticks
system.ruby.delayHist::bucket_size                  2                       # delay histogram for all message
system.ruby.delayHist::max_bucket                  19                       # delay histogram for all message
system.ruby.delayHist::samples                6401527                       # delay histogram for all message
system.ruby.delayHist::mean                  0.009076                       # delay histogram for all message
system.ruby.delayHist::stdev                 0.278576                       # delay histogram for all message
system.ruby.delayHist                    |     6393640     99.88%     99.88% |         572      0.01%     99.89% |         581      0.01%     99.89% |        1679      0.03%     99.92% |        4510      0.07%     99.99% |          81      0.00%     99.99% |          53      0.00%     99.99% |          33      0.00%     99.99% |         118      0.00%    100.00% |         260      0.00%    100.00% # delay histogram for all message
system.ruby.delayHist::total                  6401527                       # delay histogram for all message
system.ruby.outstanding_req_hist_seqr::bucket_size            1                      
system.ruby.outstanding_req_hist_seqr::max_bucket            9                      
[...]
system.ruby.LD.Directory.miss_type_mach_latency_hist_seqr |     3704542     85.45%     85.45% |      313696      7.24%     92.68% |      238156      5.49%     98.18% |       37351      0.86%     99.04% |       31324      0.72%     99.76% |        8365      0.19%     99.95% |        1274      0.03%     99.98% |         721      0.02%    100.00% |          47      0.00%    100.00% |           0      0.00%    100.00%
system.ruby.LD.Directory.miss_type_mach_latency_hist_seqr::total      4335476                      
system.ruby.ST.L1Cache.miss_type_mach_latency_hist_seqr::bucket_size            8                      
system.ruby.ST.L1Cache.miss_type_mach_latency_hist_seqr::max_bucket           79                      
system.ruby.ST.L1Cache.miss_type_mach_latency_hist_seqr::samples         1611                      
system.ruby.ST.L1Cache.miss_type_mach_latency_hist_seqr::mean    48.632526                      
system.ruby.ST.L1Cache.miss_type_mach_latency_hist_seqr::gmean    48.613824                      
system.ruby.ST.L1Cache.miss_type_mach_latency_hist_seqr::stdev     1.328721                      
system.ruby.ST.L1Cache.miss_type_mach_latency_hist_seqr |           0      0.00%      0.00% |           0      0.00%      0.00% |           0      0.00%      0.00% |           0      0.00%      0.00% |           0      0.00%      0.00% |         173     10.74%     10.74% |        1438     89.26%    100.00% |           0      0.00%    100.00% |           0      0.00%    100.00% |           0      0.00%    100.00%
system.ruby.ST.L1Cache.miss_type_mach_latency_hist_seqr::total         1611                      
system.ruby.ST.Directory.miss_type_mach_latency_hist_seqr::bucket_size          128                      
system.ruby.ST.Directory.miss_type_mach_latency_hist_seqr::max_bucket         1279                      
system.ruby.ST.Directory.miss_type_mach_latency_hist_seqr::samples      1126864                      
system.ruby.ST.Directory.miss_type_mach_latency_hist_seqr::mean   125.278470                      
system.ruby.ST.Directory.miss_type_mach_latency_hist_seqr::gmean   114.173472                      
system.ruby.ST.Directory.miss_type_mach_latency_hist_seqr::stdev    76.210431                      
system.ruby.ST.Directory.miss_type_mach_latency_hist_seqr |      954189     84.68%     84.68% |       89129      7.91%     92.59% |       65551      5.82%     98.40% |        6144      0.55%     98.95% |        8689      0.77%     99.72% |        2603      0.23%     99.95% |         335      0.03%     99.98% |         215      0.02%    100.00% |           9      0.00%    100.00% |           0      0.00%    100.00%
system.ruby.ST.Directory.miss_type_mach_latency_hist_seqr::total      1126864                      
system.ruby.IFETCH.L1Cache.miss_type_mach_latency_hist_seqr::bucket_size           64                      
system.ruby.IFETCH.L1Cache.miss_type_mach_latency_hist_seqr::max_bucket          639                      
system.ruby.IFETCH.L1Cache.miss_type_mach_latency_hist_seqr::samples       757526                      
system.ruby.IFETCH.L1Cache.miss_type_mach_latency_hist_seqr::mean    46.140679                      
system.ruby.IFETCH.L1Cache.miss_type_mach_latency_hist_seqr::gmean    46.102798                      
system.ruby.IFETCH.L1Cache.miss_type_mach_latency_hist_seqr::stdev     2.010227                      
system.ruby.IFETCH.L1Cache.miss_type_mach_latency_hist_seqr |      757486     99.99%     99.99% |          22      0.00%    100.00% |          14      0.00%    100.00% |           2      0.00%    100.00% |           1      0.00%    100.00% |           0      0.00%    100.00% |           0      0.00%    100.00% |           1      0.00%    100.00% |           0      0.00%    100.00% |           0      0.00%    100.00%
system.ruby.IFETCH.L1Cache.miss_type_mach_latency_hist_seqr::total       757526                      
system.ruby.IFETCH.Directory.miss_type_mach_latency_hist_seqr::bucket_size          128                      
system.ruby.IFETCH.Directory.miss_type_mach_latency_hist_seqr::max_bucket         1279                      
system.ruby.IFETCH.Directory.miss_type_mach_latency_hist_seqr::samples       696834                      
system.ruby.IFETCH.Directory.miss_type_mach_latency_hist_seqr::mean   113.889635                      
system.ruby.IFETCH.Directory.miss_type_mach_latency_hist_seqr::gmean    97.848842                      
system.ruby.IFETCH.Directory.miss_type_mach_latency_hist_seqr::stdev    75.664186                      
system.ruby.IFETCH.Directory.miss_type_mach_latency_hist_seqr |      550564     79.01%     79.01% |      111113     15.95%     94.95% |       26084      3.74%     98.70% |        3129      0.45%     99.15% |        4423      0.63%     99.78% |        1263      0.18%     99.96% |         137      0.02%     99.98% |         115      0.02%    100.00% |           6      0.00%    100.00% |           0      0.00%    100.00%
system.ruby.IFETCH.Directory.miss_type_mach_latency_hist_seqr::total       696834                      
system.ruby.RMW_Read.L1Cache.miss_type_mach_latency_hist_seqr::bucket_size            8                      
system.ruby.RMW_Read.L1Cache.miss_type_mach_latency_hist_seqr::max_bucket           79                      
system.ruby.RMW_Read.L1Cache.miss_type_mach_latency_hist_seqr::samples          333                      
system.ruby.RMW_Read.L1Cache.miss_type_mach_latency_hist_seqr::mean    46.696697                      
system.ruby.RMW_Read.L1Cache.miss_type_mach_latency_hist_seqr::gmean    46.648973                      
system.ruby.RMW_Read.L1Cache.miss_type_mach_latency_hist_seqr::stdev     2.138549                      
system.ruby.RMW_Read.L1Cache.miss_type_mach_latency_hist_seqr |           0      0.00%      0.00% |           0      0.00%      0.00% |           0      0.00%      0.00% |           0      0.00%      0.00% |           0      0.00%      0.00% |         200     60.06%     60.06% |         133     39.94%    100.00% |           0      0.00%    100.00% |           0      0.00%    100.00% |           0      0.00%    100.00%
system.ruby.RMW_Read.L1Cache.miss_type_mach_latency_hist_seqr::total          333                      
system.ruby.RMW_Read.Directory.miss_type_mach_latency_hist_seqr::bucket_size          128                      
system.ruby.RMW_Read.Directory.miss_type_mach_latency_hist_seqr::max_bucket         1279                      
system.ruby.RMW_Read.Directory.miss_type_mach_latency_hist_seqr::samples        32865                      
system.ruby.RMW_Read.Directory.miss_type_mach_latency_hist_seqr::mean   121.128800                      
system.ruby.RMW_Read.Directory.miss_type_mach_latency_hist_seqr::gmean   106.351498                      
system.ruby.RMW_Read.Directory.miss_type_mach_latency_hist_seqr::stdev    72.588736                      
system.ruby.RMW_Read.Directory.miss_type_mach_latency_hist_seqr |       24599     74.85%     74.85% |        6741     20.51%     95.36% |        1099      3.34%     98.70% |         150      0.46%     99.16% |         196      0.60%     99.76% |          70      0.21%     99.97% |           3      0.01%     99.98% |           7      0.02%    100.00% |           0      0.00%    100.00% |           0      0.00%    100.00%
system.ruby.RMW_Read.Directory.miss_type_mach_latency_hist_seqr::total        32865                      
system.ruby.Locked_RMW_Read.L1Cache.miss_type_mach_latency_hist_seqr::bucket_size            8                      
system.ruby.Locked_RMW_Read.L1Cache.miss_type_mach_latency_hist_seqr::max_bucket           79                      
system.ruby.Locked_RMW_Read.L1Cache.miss_type_mach_latency_hist_seqr::samples         3592                      
system.ruby.Locked_RMW_Read.L1Cache.miss_type_mach_latency_hist_seqr::mean    45.605791                      
system.ruby.Locked_RMW_Read.L1Cache.miss_type_mach_latency_hist_seqr::gmean    45.583084                      
system.ruby.Locked_RMW_Read.L1Cache.miss_type_mach_latency_hist_seqr::stdev     1.472650                      
system.ruby.Locked_RMW_Read.L1Cache.miss_type_mach_latency_hist_seqr |           0      0.00%      0.00% |           0      0.00%      0.00% |           0      0.00%      0.00% |           0      0.00%      0.00% |           0      0.00%      0.00% |        3069     85.44%     85.44% |         523     14.56%    100.00% |           0      0.00%    100.00% |           0      0.00%    100.00% |           0      0.00%    100.00%
system.ruby.Locked_RMW_Read.L1Cache.miss_type_mach_latency_hist_seqr::total         3592                      
system.ruby.Locked_RMW_Read.Directory.miss_type_mach_latency_hist_seqr::bucket_size          128                      
system.ruby.Locked_RMW_Read.Directory.miss_type_mach_latency_hist_seqr::max_bucket         1279                      
system.ruby.Locked_RMW_Read.Directory.miss_type_mach_latency_hist_seqr::samples        34373                      
system.ruby.Locked_RMW_Read.Directory.miss_type_mach_latency_hist_seqr::mean   120.900096                      
system.ruby.Locked_RMW_Read.Directory.miss_type_mach_latency_hist_seqr::gmean   106.777632                      
system.ruby.Locked_RMW_Read.Directory.miss_type_mach_latency_hist_seqr::stdev    75.962212                      
system.ruby.Locked_RMW_Read.Directory.miss_type_mach_latency_hist_seqr |       27311     79.45%     79.45% |        4743     13.80%     93.25% |        1831      5.33%     98.58% |         174      0.51%     99.09% |         232      0.67%     99.76% |          65      0.19%     99.95% |          13      0.04%     99.99% |           4      0.01%    100.00% |           0      0.00%    100.00% |           0      0.00%    100.00%
system.ruby.Locked_RMW_Read.Directory.miss_type_mach_latency_hist_seqr::total        34373                      
system.ruby.Directory_Controller.GETX         3942868      0.00%      0.00%
system.ruby.Directory_Controller.PUTX         3445874      0.00%      0.00%
system.ruby.Directory_Controller.PUTX_NotOwner           11      0.00%      0.00%
system.ruby.Directory_Controller.DMA_READ        22997      0.00%      0.00%
system.ruby.Directory_Controller.DMA_WRITE          128      0.00%      0.00%
system.ruby.Directory_Controller.Memory_Data      3468981      0.00%      0.00%
system.ruby.Directory_Controller.Memory_Ack      3446002      0.00%      0.00%
system.ruby.Directory_Controller.I.GETX       3446043      0.00%      0.00%
system.ruby.Directory_Controller.I.DMA_READ        22938      0.00%      0.00%
system.ruby.Directory_Controller.I.DMA_WRITE          128      0.00%      0.00%
system.ruby.Directory_Controller.M.GETX        496279      0.00%      0.00%
system.ruby.Directory_Controller.M.PUTX       3445815      0.00%      0.00%
system.ruby.Directory_Controller.M.PUTX_NotOwner           11      0.00%      0.00%
system.ruby.Directory_Controller.M.DMA_READ           59      0.00%      0.00%
system.ruby.Directory_Controller.M_DRD.PUTX           59      0.00%      0.00%
system.ruby.Directory_Controller.M_DRDI.Memory_Ack           59      0.00%      0.00%
system.ruby.Directory_Controller.IM.GETX          535      0.00%      0.00%
system.ruby.Directory_Controller.IM.Memory_Data      3446043      0.00%      0.00%
system.ruby.Directory_Controller.MI.GETX           11      0.00%      0.00%
system.ruby.Directory_Controller.MI.Memory_Ack      3445815      0.00%      0.00%
system.ruby.Directory_Controller.ID.Memory_Data        22938      0.00%      0.00%
system.ruby.Directory_Controller.ID_W.Memory_Ack          128      0.00%      0.00%
system.ruby.DMA_Controller.ReadRequest   |       22997    100.00%    100.00% |           0      0.00%    100.00%
system.ruby.DMA_Controller.ReadRequest::total        22997                      
system.ruby.DMA_Controller.WriteRequest  |         128    100.00%    100.00% |           0      0.00%    100.00%
system.ruby.DMA_Controller.WriteRequest::total          128                      
system.ruby.DMA_Controller.Data          |       22997    100.00%    100.00% |           0      0.00%    100.00%
system.ruby.DMA_Controller.Data::total          22997                      
system.ruby.DMA_Controller.Ack           |         128    100.00%    100.00% |           0      0.00%    100.00%
system.ruby.DMA_Controller.Ack::total             128                      
system.ruby.DMA_Controller.READY.ReadRequest |       22997    100.00%    100.00% |           0      0.00%    100.00%
system.ruby.DMA_Controller.READY.ReadRequest::total        22997                      
system.ruby.DMA_Controller.READY.WriteRequest |         128    100.00%    100.00% |           0      0.00%    100.00%
system.ruby.DMA_Controller.READY.WriteRequest::total          128                      
system.ruby.DMA_Controller.BUSY_RD.Data  |       22997    100.00%    100.00% |           0      0.00%    100.00%
system.ruby.DMA_Controller.BUSY_RD.Data::total        22997                      
system.ruby.DMA_Controller.BUSY_WR.Ack   |         128    100.00%    100.00% |           0      0.00%    100.00%
system.ruby.DMA_Controller.BUSY_WR.Ack::total          128                      
system.ruby.L1Cache_Controller.Load      |     1098762      0.29%      0.29% |     1226217      0.32%      0.61% |   354021695     93.46%     94.08% |    22443162      5.92%    100.00%
system.ruby.L1Cache_Controller.Load::total    378789836                      
system.ruby.L1Cache_Controller.Ifetch    |     5384638      0.27%      0.27% |     6844542      0.35%      0.62% |  1863444760     94.25%     94.87% |   101397117      5.13%    100.00%
system.ruby.L1Cache_Controller.Ifetch::total   1977071057                      
system.ruby.L1Cache_Controller.Store     |      859641      1.58%      1.58% |      978550      1.80%      3.37% |    39798859     73.04%     76.42% |    12849296     23.58%    100.00%
system.ruby.L1Cache_Controller.Store::total     54486346                      
system.ruby.L1Cache_Controller.Data      |      275245      6.98%      6.98% |      320364      8.13%     15.11% |     2555608     64.82%     79.93% |      791105     20.07%    100.00%
system.ruby.L1Cache_Controller.Data::total      3942322                      
system.ruby.L1Cache_Controller.Fwd_GETX  |      147240     29.67%     29.67% |      148573     29.94%     59.61% |       61406     12.37%     71.98% |      139060     28.02%    100.00%
system.ruby.L1Cache_Controller.Fwd_GETX::total       496279                      
system.ruby.L1Cache_Controller.Inv       |          22     18.64%     18.64% |          38     32.20%     50.85% |          30     25.42%     76.27% |          28     23.73%    100.00%
system.ruby.L1Cache_Controller.Inv::total          118                      
system.ruby.L1Cache_Controller.Replacement |      168260      4.71%      4.71% |      199045      5.57%     10.29% |     2523305     70.67%     80.96% |      679799     19.04%    100.00%
system.ruby.L1Cache_Controller.Replacement::total      3570409                      
system.ruby.L1Cache_Controller.Writeback_Ack |      127833      3.71%      3.71% |      171474      4.98%      8.69% |     2494373     72.39%     81.07% |      652194     18.93%    100.00%
system.ruby.L1Cache_Controller.Writeback_Ack::total      3445874                      
system.ruby.L1Cache_Controller.Writeback_Nack |           3     27.27%     27.27% |           3     27.27%     54.55% |           2     18.18%     72.73% |           3     27.27%    100.00%
system.ruby.L1Cache_Controller.Writeback_Nack::total           11                      
system.ruby.L1Cache_Controller.I.Load    |       71861      2.97%      2.97% |      105436      4.36%      7.33% |     1862302     76.99%     84.31% |      379428     15.69%    100.00%
system.ruby.L1Cache_Controller.I.Load::total      2419027                      
system.ruby.L1Cache_Controller.I.Ifetch  |      182736     21.29%     21.29% |      187786     21.88%     43.17% |      197947     23.07%     66.24% |      289736     33.76%    100.00%
system.ruby.L1Cache_Controller.I.Ifetch::total       858205                      
system.ruby.L1Cache_Controller.I.Store   |       20648      3.10%      3.10% |       27142      4.08%      7.19% |      495359     74.48%     81.67% |      121941     18.33%    100.00%
system.ruby.L1Cache_Controller.I.Store::total       665090                      
system.ruby.L1Cache_Controller.I.Replacement |       40435     32.46%     32.46% |       27587     22.14%     54.60% |       28945     23.23%     77.83% |       27616     22.17%    100.00%
system.ruby.L1Cache_Controller.I.Replacement::total       124583                      
system.ruby.L1Cache_Controller.II.Writeback_Nack |           3     27.27%     27.27% |           3     27.27%     54.55% |           2     18.18%     72.73% |           3     27.27%    100.00%
system.ruby.L1Cache_Controller.II.Writeback_Nack::total           11                      
system.ruby.L1Cache_Controller.M.Load    |     1026901      0.27%      0.27% |     1120781      0.30%      0.57% |   352159393     93.57%     94.14% |    22063734      5.86%    100.00%
system.ruby.L1Cache_Controller.M.Load::total    376370809                      
system.ruby.L1Cache_Controller.M.Ifetch  |     5201902      0.26%      0.26% |     6656756      0.34%      0.60% |  1863246813     94.28%     94.88% |   101107381      5.12%    100.00%
system.ruby.L1Cache_Controller.M.Ifetch::total   1976212852                      
system.ruby.L1Cache_Controller.M.Store   |      838993      1.56%      1.56% |      951408      1.77%      3.33% |    39303500     73.03%     76.35% |    12727355     23.65%    100.00%
system.ruby.L1Cache_Controller.M.Store::total     53821256                      
system.ruby.L1Cache_Controller.M.Fwd_GETX |      147237     29.67%     29.67% |      148570     29.94%     59.61% |       61404     12.37%     71.98% |      139057     28.02%    100.00%
system.ruby.L1Cache_Controller.M.Fwd_GETX::total       496268                      
system.ruby.L1Cache_Controller.M.Inv     |          11     18.64%     18.64% |          19     32.20%     50.85% |          15     25.42%     76.27% |          14     23.73%    100.00%
system.ruby.L1Cache_Controller.M.Inv::total           59                      
system.ruby.L1Cache_Controller.M.Replacement |      127825      3.71%      3.71% |      171458      4.98%      8.69% |     2494360     72.39%     81.07% |      652183     18.93%    100.00%
system.ruby.L1Cache_Controller.M.Replacement::total      3445826                      
system.ruby.L1Cache_Controller.MI.Fwd_GETX |           3     27.27%     27.27% |           3     27.27%     54.55% |           2     18.18%     72.73% |           3     27.27%    100.00%
system.ruby.L1Cache_Controller.MI.Fwd_GETX::total           11                      
system.ruby.L1Cache_Controller.MI.Inv    |          11     18.64%     18.64% |          19     32.20%     50.85% |          15     25.42%     76.27% |          14     23.73%    100.00%
system.ruby.L1Cache_Controller.MI.Inv::total           59                      
system.ruby.L1Cache_Controller.MI.Writeback_Ack |      127833      3.71%      3.71% |      171474      4.98%      8.69% |     2494373     72.39%     81.07% |      652194     18.93%    100.00%
system.ruby.L1Cache_Controller.MI.Writeback_Ack::total      3445874                      
system.ruby.L1Cache_Controller.IS.Data   |      254597      7.77%      7.77% |      293222      8.95%     16.72% |     2060249     62.87%     79.58% |      669164     20.42%    100.00%
system.ruby.L1Cache_Controller.IS.Data::total      3277232                      
system.ruby.L1Cache_Controller.IM.Data   |       20648      3.10%      3.10% |       27142      4.08%      7.19% |      495359     74.48%     81.67% |      121941     18.33%    100.00%
system.ruby.L1Cache_Controller.IM.Data::total       665090                      

---------- End Simulation Statistics   ----------
