
---------- Begin Simulation Statistics ----------
sim_seconds                                  1.674460                       # Number of seconds simulated
sim_ticks                                1674459526000                       # Number of ticks simulated
final_tick                               53416198217501                       # Number of ticks from beginning of simulation (restored from checkpoints and never reset)
sim_freq                                 1000000000000                       # Frequency of simulated ticks
host_inst_rate                                 110436                       # Simulator instruction rate (inst/s)
host_op_rate                                   164502                       # Simulator op (including micro ops) rate (op/s)
host_tick_rate                              255289112                       # Simulator tick rate (ticks/s)
host_mem_usage                                1784984                       # Number of bytes of host memory used
host_seconds                                  6559.07                       # Real time elapsed on the host
sim_insts                                   724358668                       # Number of instructions simulated
sim_ops                                    1078977854                       # Number of ops (including micro ops) simulated
system.voltage_domain.voltage                       1                       # Voltage in Volts
system.clk_domain.clock                          1000                       # Clock period in ticks
system.mem_ctrls.bytes_read::ruby.dir_cntrl0    387067200                       # Number of bytes read from this memory
system.mem_ctrls.bytes_read::total          387067200                       # Number of bytes read from this memory
system.mem_ctrls.bytes_written::ruby.dir_cntrl0    182750976                       # Number of bytes written to this memory
system.mem_ctrls.bytes_written::total       182750976                       # Number of bytes written to this memory
system.mem_ctrls.num_reads::ruby.dir_cntrl0      6047925                       # Number of read requests responded to by this memory
system.mem_ctrls.num_reads::total             6047925                       # Number of read requests responded to by this memory
system.mem_ctrls.num_writes::ruby.dir_cntrl0      2855484                       # Number of write requests responded to by this memory
system.mem_ctrls.num_writes::total            2855484                       # Number of write requests responded to by this memory
system.mem_ctrls.bw_read::ruby.dir_cntrl0    231159484                       # Total read bandwidth from this memory (bytes/s)
system.mem_ctrls.bw_read::total             231159484                       # Total read bandwidth from this memory (bytes/s)
system.mem_ctrls.bw_write::ruby.dir_cntrl0    109140277                       # Write bandwidth from this memory (bytes/s)
system.mem_ctrls.bw_write::total            109140277                       # Write bandwidth from this memory (bytes/s)
system.mem_ctrls.bw_total::ruby.dir_cntrl0    340299761                       # Total bandwidth to/from this memory (bytes/s)
system.mem_ctrls.bw_total::total            340299761                       # Total bandwidth to/from this memory (bytes/s)
system.mem_ctrls.readReqs                     6047925                       # Number of read requests accepted
system.mem_ctrls.writeReqs                    2855484                       # Number of write requests accepted
system.mem_ctrls.readBursts                   6047925                       # Number of DRAM read bursts, including those serviced by the write queue
system.mem_ctrls.writeBursts                  2855484                       # Number of DRAM write bursts, including those merged in the write queue
system.mem_ctrls.bytesReadDRAM              386126144                       # Total number of bytes read from DRAM
system.mem_ctrls.bytesReadWrQ                  941056                       # Total number of bytes read from write queue
system.mem_ctrls.bytesWritten               182718976                       # Total number of bytes written to DRAM
system.mem_ctrls.bytesReadSys               387067200                       # Total read bytes from the system interface side
system.mem_ctrls.bytesWrittenSys            182750976                       # Total written bytes from the system interface side
system.mem_ctrls.servicedByWrQ                  14704                       # Number of DRAM read bursts serviced by the write queue
system.mem_ctrls.mergedWrBursts                   503                       # Number of DRAM write bursts merged with an existing one
system.mem_ctrls.neitherReadNorWriteReqs            0                       # Number of requests that are neither read nor write
system.mem_ctrls.perBankRdBursts::0            381139                       # Per bank write bursts
system.mem_ctrls.perBankRdBursts::1            385171                       # Per bank write bursts
system.mem_ctrls.perBankRdBursts::2            369209                       # Per bank write bursts
system.mem_ctrls.perBankRdBursts::3            373197                       # Per bank write bursts
system.mem_ctrls.perBankRdBursts::4            374216                       # Per bank write bursts
system.mem_ctrls.perBankRdBursts::5            385365                       # Per bank write bursts
system.mem_ctrls.perBankRdBursts::6            384241                       # Per bank write bursts
system.mem_ctrls.perBankRdBursts::7            386262                       # Per bank write bursts
system.mem_ctrls.perBankRdBursts::8            385403                       # Per bank write bursts
system.mem_ctrls.perBankRdBursts::9            369327                       # Per bank write bursts
system.mem_ctrls.perBankRdBursts::10           373148                       # Per bank write bursts
system.mem_ctrls.perBankRdBursts::11           372930                       # Per bank write bursts
system.mem_ctrls.perBankRdBursts::12           369536                       # Per bank write bursts
system.mem_ctrls.perBankRdBursts::13           374722                       # Per bank write bursts
system.mem_ctrls.perBankRdBursts::14           374028                       # Per bank write bursts
system.mem_ctrls.perBankRdBursts::15           375327                       # Per bank write bursts
system.mem_ctrls.perBankWrBursts::0            181699                       # Per bank write bursts
system.mem_ctrls.perBankWrBursts::1            185341                       # Per bank write bursts
system.mem_ctrls.perBankWrBursts::2            171461                       # Per bank write bursts
system.mem_ctrls.perBankWrBursts::3            174493                       # Per bank write bursts
system.mem_ctrls.perBankWrBursts::4            173962                       # Per bank write bursts
system.mem_ctrls.perBankWrBursts::5            185486                       # Per bank write bursts
system.mem_ctrls.perBankWrBursts::6            185814                       # Per bank write bursts
system.mem_ctrls.perBankWrBursts::7            187830                       # Per bank write bursts
system.mem_ctrls.perBankWrBursts::8            186131                       # Per bank write bursts
system.mem_ctrls.perBankWrBursts::9            171865                       # Per bank write bursts
system.mem_ctrls.perBankWrBursts::10           175273                       # Per bank write bursts
system.mem_ctrls.perBankWrBursts::11           175133                       # Per bank write bursts
system.mem_ctrls.perBankWrBursts::12           171886                       # Per bank write bursts
system.mem_ctrls.perBankWrBursts::13           176624                       # Per bank write bursts
system.mem_ctrls.perBankWrBursts::14           175600                       # Per bank write bursts
system.mem_ctrls.perBankWrBursts::15           176386                       # Per bank write bursts
system.mem_ctrls.numRdRetry                         0                       # Number of times read queue was full causing retry
system.mem_ctrls.numWrRetry                         0                       # Number of times write queue was full causing retry
system.mem_ctrls.totGap                  1674459172500                       # Total gap between requests
system.mem_ctrls.readPktSize::0                     0                       # Read request sizes (log2)
system.mem_ctrls.readPktSize::1                     0                       # Read request sizes (log2)
system.mem_ctrls.readPktSize::2                     0                       # Read request sizes (log2)
system.mem_ctrls.readPktSize::3                     0                       # Read request sizes (log2)
system.mem_ctrls.readPktSize::4                     0                       # Read request sizes (log2)
system.mem_ctrls.readPktSize::5                     0                       # Read request sizes (log2)
system.mem_ctrls.readPktSize::6               6047925                       # Read request sizes (log2)
system.mem_ctrls.writePktSize::0                    0                       # Write request sizes (log2)
system.mem_ctrls.writePktSize::1                    0                       # Write request sizes (log2)
system.mem_ctrls.writePktSize::2                    0                       # Write request sizes (log2)
system.mem_ctrls.writePktSize::3                    0                       # Write request sizes (log2)
system.mem_ctrls.writePktSize::4                    0                       # Write request sizes (log2)
system.mem_ctrls.writePktSize::5                    0                       # Write request sizes (log2)
system.mem_ctrls.writePktSize::6              2855484                       # Write request sizes (log2)
system.mem_ctrls.rdQLenPdf::0                 6032400                       # What read queue length does an incoming req see
system.mem_ctrls.rdQLenPdf::1                     821                       # What read queue length does an incoming req see
system.mem_ctrls.rdQLenPdf::2                       0                       # What read queue length does an incoming req see
system.mem_ctrls.rdQLenPdf::3                       0                       # What read queue length does an incoming req see
system.mem_ctrls.rdQLenPdf::4                       0                       # What read queue length does an incoming req see
system.mem_ctrls.rdQLenPdf::5                       0                       # What read queue length does an incoming req see
system.mem_ctrls.rdQLenPdf::6                       0                       # What read queue length does an incoming req see
system.mem_ctrls.rdQLenPdf::7                       0                       # What read queue length does an incoming req see
system.mem_ctrls.rdQLenPdf::8                       0                       # What read queue length does an incoming req see
system.mem_ctrls.rdQLenPdf::9                       0                       # What read queue length does an incoming req see
system.mem_ctrls.rdQLenPdf::10                      0                       # What read queue length does an incoming req see
system.mem_ctrls.rdQLenPdf::11                      0                       # What read queue length does an incoming req see
system.mem_ctrls.rdQLenPdf::12                      0                       # What read queue length does an incoming req see
system.mem_ctrls.rdQLenPdf::13                      0                       # What read queue length does an incoming req see
system.mem_ctrls.rdQLenPdf::14                      0                       # What read queue length does an incoming req see
system.mem_ctrls.rdQLenPdf::15                      0                       # What read queue length does an incoming req see
system.mem_ctrls.rdQLenPdf::16                      0                       # What read queue length does an incoming req see
system.mem_ctrls.rdQLenPdf::17                      0                       # What read queue length does an incoming req see
system.mem_ctrls.rdQLenPdf::18                      0                       # What read queue length does an incoming req see
system.mem_ctrls.rdQLenPdf::19                      0                       # What read queue length does an incoming req see
system.mem_ctrls.rdQLenPdf::20                      0                       # What read queue length does an incoming req see
system.mem_ctrls.rdQLenPdf::21                      0                       # What read queue length does an incoming req see
system.mem_ctrls.rdQLenPdf::22                      0                       # What read queue length does an incoming req see
system.mem_ctrls.rdQLenPdf::23                      0                       # What read queue length does an incoming req see
system.mem_ctrls.rdQLenPdf::24                      0                       # What read queue length does an incoming req see
system.mem_ctrls.rdQLenPdf::25                      0                       # What read queue length does an incoming req see
system.mem_ctrls.rdQLenPdf::26                      0                       # What read queue length does an incoming req see
system.mem_ctrls.rdQLenPdf::27                      0                       # What read queue length does an incoming req see
system.mem_ctrls.rdQLenPdf::28                      0                       # What read queue length does an incoming req see
system.mem_ctrls.rdQLenPdf::29                      0                       # What read queue length does an incoming req see
system.mem_ctrls.rdQLenPdf::30                      0                       # What read queue length does an incoming req see
system.mem_ctrls.rdQLenPdf::31                      0                       # What read queue length does an incoming req see
system.mem_ctrls.wrQLenPdf::0                       0                       # What write queue length does an incoming req see
system.mem_ctrls.wrQLenPdf::1                       0                       # What write queue length does an incoming req see
system.mem_ctrls.wrQLenPdf::2                       0                       # What write queue length does an incoming req see
system.mem_ctrls.wrQLenPdf::3                       0                       # What write queue length does an incoming req see
system.mem_ctrls.wrQLenPdf::4                       0                       # What write queue length does an incoming req see
system.mem_ctrls.wrQLenPdf::5                       0                       # What write queue length does an incoming req see
system.mem_ctrls.wrQLenPdf::6                       0                       # What write queue length does an incoming req see
system.mem_ctrls.wrQLenPdf::7                       0                       # What write queue length does an incoming req see
system.mem_ctrls.wrQLenPdf::8                       0                       # What write queue length does an incoming req see
system.mem_ctrls.wrQLenPdf::9                       0                       # What write queue length does an incoming req see
system.mem_ctrls.wrQLenPdf::10                      0                       # What write queue length does an incoming req see
system.mem_ctrls.wrQLenPdf::11                      0                       # What write queue length does an incoming req see
system.mem_ctrls.wrQLenPdf::12                      0                       # What write queue length does an incoming req see
system.mem_ctrls.wrQLenPdf::13                      0                       # What write queue length does an incoming req see
system.mem_ctrls.wrQLenPdf::14                      0                       # What write queue length does an incoming req see
system.mem_ctrls.wrQLenPdf::15                  48120                       # What write queue length does an incoming req see
system.mem_ctrls.wrQLenPdf::16                  59422                       # What write queue length does an incoming req see
system.mem_ctrls.wrQLenPdf::17                 131707                       # What write queue length does an incoming req see
system.mem_ctrls.wrQLenPdf::18                 170256                       # What write queue length does an incoming req see
system.mem_ctrls.wrQLenPdf::19                 175051                       # What write queue length does an incoming req see
system.mem_ctrls.wrQLenPdf::20                 176395                       # What write queue length does an incoming req see
system.mem_ctrls.wrQLenPdf::21                 177035                       # What write queue length does an incoming req see
system.mem_ctrls.wrQLenPdf::22                 176867                       # What write queue length does an incoming req see
system.mem_ctrls.wrQLenPdf::23                 176997                       # What write queue length does an incoming req see
system.mem_ctrls.wrQLenPdf::24                 176958                       # What write queue length does an incoming req see
system.mem_ctrls.wrQLenPdf::25                 176270                       # What write queue length does an incoming req see
system.mem_ctrls.wrQLenPdf::26                 175727                       # What write queue length does an incoming req see
system.mem_ctrls.wrQLenPdf::27                 174156                       # What write queue length does an incoming req see
system.mem_ctrls.wrQLenPdf::28                 173306                       # What write queue length does an incoming req see
system.mem_ctrls.wrQLenPdf::29                 173195                       # What write queue length does an incoming req see
system.mem_ctrls.wrQLenPdf::30                 171267                       # What write queue length does an incoming req see
system.mem_ctrls.wrQLenPdf::31                 170458                       # What write queue length does an incoming req see
system.mem_ctrls.wrQLenPdf::32                 170636                       # What write queue length does an incoming req see
system.mem_ctrls.wrQLenPdf::33                    726                       # What write queue length does an incoming req see
system.mem_ctrls.wrQLenPdf::34                    205                       # What write queue length does an incoming req see
system.mem_ctrls.wrQLenPdf::35                     79                       # What write queue length does an incoming req see
system.mem_ctrls.wrQLenPdf::36                     37                       # What write queue length does an incoming req see
system.mem_ctrls.wrQLenPdf::37                     26                       # What write queue length does an incoming req see
system.mem_ctrls.wrQLenPdf::38                     20                       # What write queue length does an incoming req see
system.mem_ctrls.wrQLenPdf::39                     16                       # What write queue length does an incoming req see
system.mem_ctrls.wrQLenPdf::40                     17                       # What write queue length does an incoming req see
system.mem_ctrls.wrQLenPdf::41                     12                       # What write queue length does an incoming req see
system.mem_ctrls.wrQLenPdf::42                      9                       # What write queue length does an incoming req see
system.mem_ctrls.wrQLenPdf::43                      5                       # What write queue length does an incoming req see
system.mem_ctrls.wrQLenPdf::44                      4                       # What write queue length does an incoming req see
system.mem_ctrls.wrQLenPdf::45                      2                       # What write queue length does an incoming req see
system.mem_ctrls.wrQLenPdf::46                      0                       # What write queue length does an incoming req see
system.mem_ctrls.wrQLenPdf::47                      0                       # What write queue length does an incoming req see
system.mem_ctrls.wrQLenPdf::48                      0                       # What write queue length does an incoming req see
system.mem_ctrls.wrQLenPdf::49                      0                       # What write queue length does an incoming req see
system.mem_ctrls.wrQLenPdf::50                      0                       # What write queue length does an incoming req see
system.mem_ctrls.wrQLenPdf::51                      0                       # What write queue length does an incoming req see
system.mem_ctrls.wrQLenPdf::52                      0                       # What write queue length does an incoming req see
system.mem_ctrls.wrQLenPdf::53                      0                       # What write queue length does an incoming req see
system.mem_ctrls.wrQLenPdf::54                      0                       # What write queue length does an incoming req see
system.mem_ctrls.wrQLenPdf::55                      0                       # What write queue length does an incoming req see
system.mem_ctrls.wrQLenPdf::56                      0                       # What write queue length does an incoming req see
system.mem_ctrls.wrQLenPdf::57                      0                       # What write queue length does an incoming req see
system.mem_ctrls.wrQLenPdf::58                      0                       # What write queue length does an incoming req see
system.mem_ctrls.wrQLenPdf::59                      0                       # What write queue length does an incoming req see
system.mem_ctrls.wrQLenPdf::60                      0                       # What write queue length does an incoming req see
system.mem_ctrls.wrQLenPdf::61                      0                       # What write queue length does an incoming req see
system.mem_ctrls.wrQLenPdf::62                      0                       # What write queue length does an incoming req see
system.mem_ctrls.wrQLenPdf::63                      0                       # What write queue length does an incoming req see
system.mem_ctrls.bytesPerActivate::samples      4118678                       # Bytes accessed per row activation
system.mem_ctrls.bytesPerActivate::mean    138.113536                       # Bytes accessed per row activation
system.mem_ctrls.bytesPerActivate::gmean    86.520837                       # Bytes accessed per row activation
system.mem_ctrls.bytesPerActivate::stdev   218.952304                       # Bytes accessed per row activation
system.mem_ctrls.bytesPerActivate::0-127      3400150     82.55%     82.55% # Bytes accessed per row activation
system.mem_ctrls.bytesPerActivate::128-255       261061      6.34%     88.89% # Bytes accessed per row activation
system.mem_ctrls.bytesPerActivate::256-383       100229      2.43%     91.33% # Bytes accessed per row activation
system.mem_ctrls.bytesPerActivate::384-511        64135      1.56%     92.88% # Bytes accessed per row activation
system.mem_ctrls.bytesPerActivate::512-639        43828      1.06%     93.95% # Bytes accessed per row activation
system.mem_ctrls.bytesPerActivate::640-767        34617      0.84%     94.79% # Bytes accessed per row activation
system.mem_ctrls.bytesPerActivate::768-895        31336      0.76%     95.55% # Bytes accessed per row activation
system.mem_ctrls.bytesPerActivate::896-1023        17970      0.44%     95.99% # Bytes accessed per row activation
system.mem_ctrls.bytesPerActivate::1024-1151       165352      4.01%    100.00% # Bytes accessed per row activation
system.mem_ctrls.bytesPerActivate::total      4118678                       # Bytes accessed per row activation
system.mem_ctrls.rdPerTurnAround::samples       170226                       # Reads before turning the bus around for writes
system.mem_ctrls.rdPerTurnAround::mean      35.442952                       # Reads before turning the bus around for writes
system.mem_ctrls.rdPerTurnAround::stdev    508.585848                       # Reads before turning the bus around for writes
system.mem_ctrls.rdPerTurnAround::0-2047       170163     99.96%     99.96% # Reads before turning the bus around for writes
system.mem_ctrls.rdPerTurnAround::2048-4095            4      0.00%     99.97% # Reads before turning the bus around for writes
system.mem_ctrls.rdPerTurnAround::4096-6143            4      0.00%     99.97% # Reads before turning the bus around for writes
system.mem_ctrls.rdPerTurnAround::6144-8191            3      0.00%     99.97% # Reads before turning the bus around for writes
system.mem_ctrls.rdPerTurnAround::8192-10239            1      0.00%     99.97% # Reads before turning the bus around for writes
system.mem_ctrls.rdPerTurnAround::10240-12287            3      0.00%     99.97% # Reads before turning the bus around for writes
system.mem_ctrls.rdPerTurnAround::12288-14335            1      0.00%     99.97% # Reads before turning the bus around for writes
system.mem_ctrls.rdPerTurnAround::16384-18431            2      0.00%     99.97% # Reads before turning the bus around for writes
system.mem_ctrls.rdPerTurnAround::20480-22527            2      0.00%     99.97% # Reads before turning the bus around for writes
system.mem_ctrls.rdPerTurnAround::22528-24575            1      0.00%     99.98% # Reads before turning the bus around for writes
system.mem_ctrls.rdPerTurnAround::24576-26623            3      0.00%     99.98% # Reads before turning the bus around for writes
system.mem_ctrls.rdPerTurnAround::26624-28671            1      0.00%     99.98% # Reads before turning the bus around for writes
system.mem_ctrls.rdPerTurnAround::28672-30719           26      0.02%     99.99% # Reads before turning the bus around for writes
system.mem_ctrls.rdPerTurnAround::30720-32767            8      0.00%    100.00% # Reads before turning the bus around for writes
system.mem_ctrls.rdPerTurnAround::32768-34815            1      0.00%    100.00% # Reads before turning the bus around for writes
system.mem_ctrls.rdPerTurnAround::34816-36863            2      0.00%    100.00% # Reads before turning the bus around for writes
system.mem_ctrls.rdPerTurnAround::55296-57343            1      0.00%    100.00% # Reads before turning the bus around for writes
system.mem_ctrls.rdPerTurnAround::total        170226                       # Reads before turning the bus around for writes
system.mem_ctrls.wrPerTurnAround::samples       170226                       # Writes before turning the bus around for reads
system.mem_ctrls.wrPerTurnAround::mean      16.771727                       # Writes before turning the bus around for reads
system.mem_ctrls.wrPerTurnAround::gmean     16.733737                       # Writes before turning the bus around for reads
system.mem_ctrls.wrPerTurnAround::stdev      1.169791                       # Writes before turning the bus around for reads
system.mem_ctrls.wrPerTurnAround::16           109163     64.13%     64.13% # Writes before turning the bus around for reads
system.mem_ctrls.wrPerTurnAround::17             8282      4.87%     68.99% # Writes before turning the bus around for reads
system.mem_ctrls.wrPerTurnAround::18            42088     24.72%     93.72% # Writes before turning the bus around for reads
system.mem_ctrls.wrPerTurnAround::19             6769      3.98%     97.69% # Writes before turning the bus around for reads
system.mem_ctrls.wrPerTurnAround::20             2407      1.41%     99.11% # Writes before turning the bus around for reads
system.mem_ctrls.wrPerTurnAround::21              899      0.53%     99.64% # Writes before turning the bus around for reads
system.mem_ctrls.wrPerTurnAround::22              319      0.19%     99.82% # Writes before turning the bus around for reads
system.mem_ctrls.wrPerTurnAround::23              131      0.08%     99.90% # Writes before turning the bus around for reads
system.mem_ctrls.wrPerTurnAround::24               76      0.04%     99.95% # Writes before turning the bus around for reads
system.mem_ctrls.wrPerTurnAround::25               36      0.02%     99.97% # Writes before turning the bus around for reads
system.mem_ctrls.wrPerTurnAround::26               22      0.01%     99.98% # Writes before turning the bus around for reads
system.mem_ctrls.wrPerTurnAround::27               13      0.01%     99.99% # Writes before turning the bus around for reads
system.mem_ctrls.wrPerTurnAround::28                6      0.00%     99.99% # Writes before turning the bus around for reads
system.mem_ctrls.wrPerTurnAround::29                2      0.00%     99.99% # Writes before turning the bus around for reads
system.mem_ctrls.wrPerTurnAround::32                2      0.00%     99.99% # Writes before turning the bus around for reads
system.mem_ctrls.wrPerTurnAround::33                1      0.00%     99.99% # Writes before turning the bus around for reads
system.mem_ctrls.wrPerTurnAround::34                2      0.00%    100.00% # Writes before turning the bus around for reads
system.mem_ctrls.wrPerTurnAround::35                1      0.00%    100.00% # Writes before turning the bus around for reads
system.mem_ctrls.wrPerTurnAround::36                1      0.00%    100.00% # Writes before turning the bus around for reads
system.mem_ctrls.wrPerTurnAround::37                2      0.00%    100.00% # Writes before turning the bus around for reads
system.mem_ctrls.wrPerTurnAround::38                2      0.00%    100.00% # Writes before turning the bus around for reads
system.mem_ctrls.wrPerTurnAround::39                2      0.00%    100.00% # Writes before turning the bus around for reads
system.mem_ctrls.wrPerTurnAround::total        170226                       # Writes before turning the bus around for reads
system.mem_ctrls.totQLat                  83662298998                       # Total ticks spent queuing
system.mem_ctrls.totMemAccLat            196785192748                       # Total ticks spent from burst creation until serviced by the DRAM
system.mem_ctrls.totBusLat                30166105000                       # Total ticks spent in databus transfers
system.mem_ctrls.avgQLat                     13866.94                       # Average queueing delay per DRAM burst
system.mem_ctrls.avgBusLat                    5000.00                       # Average bus latency per DRAM burst
system.mem_ctrls.avgMemAccLat                32616.94                       # Average memory access latency per DRAM burst
system.mem_ctrls.avgRdBW                       230.60                       # Average DRAM read bandwidth in MiByte/s
system.mem_ctrls.avgWrBW                       109.12                       # Average achieved write bandwidth in MiByte/s
system.mem_ctrls.avgRdBWSys                    231.16                       # Average system read bandwidth in MiByte/s
system.mem_ctrls.avgWrBWSys                    109.14                       # Average system write bandwidth in MiByte/s
system.mem_ctrls.peakBW                      12800.00                       # Theoretical peak bandwidth in MiByte/s
system.mem_ctrls.busUtil                         2.65                       # Data bus utilization in percentage
system.mem_ctrls.busUtilRead                     1.80                       # Data bus utilization in percentage for reads
system.mem_ctrls.busUtilWrite                    0.85                       # Data bus utilization in percentage for writes
system.mem_ctrls.avgRdQLen                       1.00                       # Average read queue length when enqueuing
system.mem_ctrls.avgWrQLen                      25.16                       # Average write queue length when enqueuing
system.mem_ctrls.readRowHits                  3775482                       # Number of row buffer hits during reads
system.mem_ctrls.writeRowHits                  994046                       # Number of row buffer hits during writes
system.mem_ctrls.readRowHitRate                 62.58                       # Row buffer hit rate for reads
system.mem_ctrls.writeRowHitRate                34.82                       # Row buffer hit rate for writes
system.mem_ctrls.avgGap                     188069.44                       # Average gap between requests
system.mem_ctrls.pageHitRate                    53.66                       # Row buffer hit rate, read and write combined
system.mem_ctrls_0.actEnergy              15909279120                       # Energy for activate commands per rank (pJ)
system.mem_ctrls_0.preEnergy               8680658250                       # Energy for precharge commands per rank (pJ)
system.mem_ctrls_0.readEnergy             23767052400                       # Energy for read commands per rank (pJ)
system.mem_ctrls_0.writeEnergy             9370831680                       # Energy for write commands per rank (pJ)
system.mem_ctrls_0.refreshEnergy         109580440320                       # Energy for refresh commands per rank (pJ)
system.mem_ctrls_0.actBackEnergy         547429788090                       # Energy for active background per rank (pJ)
system.mem_ctrls_0.preBackEnergy         526429903500                       # Energy for precharge background per rank (pJ)
system.mem_ctrls_0.totalEnergy           1241167953360                       # Total energy per rank (pJ)
system.mem_ctrls_0.averagePower            739.794843                       # Core power per rank (mW)
system.mem_ctrls_0.memoryStateTime::IDLE 870914200750                       # Time in different power states
system.mem_ctrls_0.memoryStateTime::REF   55914040000                       # Time in different power states
system.mem_ctrls_0.memoryStateTime::PRE_PDN            0                       # Time in different power states
system.mem_ctrls_0.memoryStateTime::ACT  747631721500                       # Time in different power states
system.mem_ctrls_0.memoryStateTime::ACT_PDN            0                       # Time in different power states
system.mem_ctrls_1.actEnergy              15256420200                       # Energy for activate commands per rank (pJ)
system.mem_ctrls_1.preEnergy               8324435625                       # Energy for precharge commands per rank (pJ)
system.mem_ctrls_1.readEnergy             23410600200                       # Energy for read commands per rank (pJ)
system.mem_ctrls_1.writeEnergy             9129697920                       # Energy for write commands per rank (pJ)
system.mem_ctrls_1.refreshEnergy         109580440320                       # Energy for refresh commands per rank (pJ)
system.mem_ctrls_1.actBackEnergy         546707394315                       # Energy for active background per rank (pJ)
system.mem_ctrls_1.preBackEnergy         527063582250                       # Energy for precharge background per rank (pJ)
system.mem_ctrls_1.totalEnergy           1239472570830                       # Total energy per rank (pJ)
system.mem_ctrls_1.averagePower            738.784315                       # Core power per rank (mW)
system.mem_ctrls_1.memoryStateTime::IDLE 871803417250                       # Time in different power states
system.mem_ctrls_1.memoryStateTime::REF   55914040000                       # Time in different power states
system.mem_ctrls_1.memoryStateTime::PRE_PDN            0                       # Time in different power states
system.mem_ctrls_1.memoryStateTime::ACT  746746750250                       # Time in different power states
system.mem_ctrls_1.memoryStateTime::ACT_PDN            0                       # Time in different power states
system.cpu_voltage_domain.voltage                   1                       # Voltage in Volts
system.cpu_clk_domain.clock                       500                       # Clock period in ticks
system.cpu0.apic_clk_domain.clock                8000                       # Clock period in ticks
system.cpu0.numCycles                      3350873917                       # number of cpu cycles simulated
system.cpu0.numWorkItemsStarted                     0                       # number of work items this cpu started
system.cpu0.numWorkItemsCompleted                   0                       # number of work items this cpu completed
system.cpu0.kern.inst.arm                           0                       # number of arm instructions executed
system.cpu0.kern.inst.quiesce                       0                       # number of quiesce instructions executed
system.cpu0.committedInsts                  717259606                       # Number of instructions committed
system.cpu0.committedOps                   1064668772                       # Number of ops (including micro ops) committed
system.cpu0.num_int_alu_accesses            464172038                       # Number of integer alu accesses
system.cpu0.num_fp_alu_accesses             708837843                       # Number of float alu accesses
system.cpu0.num_func_calls                     912953                       # number of times a function call or return occured
system.cpu0.num_conditional_control_insts     10841144                       # number of instructions that are conditional controls
system.cpu0.num_int_insts                   464172038                       # number of integer instructions
system.cpu0.num_fp_insts                    708837843                       # number of float instructions
system.cpu0.num_int_register_reads          972447748                       # number of times the integer registers were read
system.cpu0.num_int_register_writes         344001988                       # number of times the integer registers were written
system.cpu0.num_fp_register_reads          1593836311                       # number of times the floating registers were read
system.cpu0.num_fp_register_writes          654311799                       # number of times the floating registers were written
system.cpu0.num_cc_register_reads           111774792                       # number of times the CC registers were read
system.cpu0.num_cc_register_writes          201721127                       # number of times the CC registers were written
system.cpu0.num_mem_refs                    129406822                       # number of memory refs
system.cpu0.num_load_insts                   75474162                       # Number of load instructions
system.cpu0.num_store_insts                  53932660                       # Number of store instructions
system.cpu0.num_idle_cycles              11371492.008187                       # Number of idle cycles
system.cpu0.num_busy_cycles              3339502424.991813                       # Number of busy cycles
system.cpu0.not_idle_fraction                0.996606                       # Percentage of non-idle cycles
system.cpu0.idle_fraction                    0.003394                       # Percentage of idle cycles
system.cpu0.Branches                         12047962                       # Number of branches fetched
system.cpu0.op_class::No_OpClass               315693      0.03%      0.03% # Class of executed instruction
system.cpu0.op_class::IntAlu                431555023     40.53%     40.56% # Class of executed instruction
system.cpu0.op_class::IntMult                   89144      0.01%     40.57% # Class of executed instruction
system.cpu0.op_class::IntDiv                     1815      0.00%     40.57% # Class of executed instruction
system.cpu0.op_class::FloatAdd              503316796     47.27%     87.85% # Class of executed instruction
system.cpu0.op_class::FloatCmp                      0      0.00%     87.85% # Class of executed instruction
system.cpu0.op_class::FloatCvt                      0      0.00%     87.85% # Class of executed instruction
system.cpu0.op_class::FloatMult                     0      0.00%     87.85% # Class of executed instruction
system.cpu0.op_class::FloatDiv                      0      0.00%     87.85% # Class of executed instruction
system.cpu0.op_class::FloatSqrt                     0      0.00%     87.85% # Class of executed instruction
system.cpu0.op_class::SimdAdd                       0      0.00%     87.85% # Class of executed instruction
system.cpu0.op_class::SimdAddAcc                    0      0.00%     87.85% # Class of executed instruction
system.cpu0.op_class::SimdAlu                       0      0.00%     87.85% # Class of executed instruction
system.cpu0.op_class::SimdCmp                       0      0.00%     87.85% # Class of executed instruction
system.cpu0.op_class::SimdCvt                       0      0.00%     87.85% # Class of executed instruction
system.cpu0.op_class::SimdMisc                      0      0.00%     87.85% # Class of executed instruction
system.cpu0.op_class::SimdMult                      0      0.00%     87.85% # Class of executed instruction
system.cpu0.op_class::SimdMultAcc                   0      0.00%     87.85% # Class of executed instruction
system.cpu0.op_class::SimdShift                     0      0.00%     87.85% # Class of executed instruction
system.cpu0.op_class::SimdShiftAcc                  0      0.00%     87.85% # Class of executed instruction
system.cpu0.op_class::SimdSqrt                      0      0.00%     87.85% # Class of executed instruction
system.cpu0.op_class::SimdFloatAdd                  0      0.00%     87.85% # Class of executed instruction
system.cpu0.op_class::SimdFloatAlu                  0      0.00%     87.85% # Class of executed instruction
system.cpu0.op_class::SimdFloatCmp                  0      0.00%     87.85% # Class of executed instruction
system.cpu0.op_class::SimdFloatCvt                  0      0.00%     87.85% # Class of executed instruction
system.cpu0.op_class::SimdFloatDiv                  0      0.00%     87.85% # Class of executed instruction
system.cpu0.op_class::SimdFloatMisc                 0      0.00%     87.85% # Class of executed instruction
system.cpu0.op_class::SimdFloatMult                 0      0.00%     87.85% # Class of executed instruction
system.cpu0.op_class::SimdFloatMultAcc              0      0.00%     87.85% # Class of executed instruction
system.cpu0.op_class::SimdFloatSqrt                 0      0.00%     87.85% # Class of executed instruction
system.cpu0.op_class::MemRead                75474162      7.09%     94.93% # Class of executed instruction
system.cpu0.op_class::MemWrite               53932660      5.07%    100.00% # Class of executed instruction
system.cpu0.op_class::IprAccess                     0      0.00%    100.00% # Class of executed instruction
system.cpu0.op_class::InstPrefetch                  0      0.00%    100.00% # Class of executed instruction
system.cpu0.op_class::total                1064685293                       # Class of executed instruction
system.cpu1.apic_clk_domain.clock                8000                       # Clock period in ticks
system.cpu1.numCycles                      3342873870                       # number of cpu cycles simulated
system.cpu1.numWorkItemsStarted                     0                       # number of work items this cpu started
system.cpu1.numWorkItemsCompleted                   0                       # number of work items this cpu completed
system.cpu1.kern.inst.arm                           0                       # number of arm instructions executed
system.cpu1.kern.inst.quiesce                       0                       # number of quiesce instructions executed
system.cpu1.committedInsts                    1142691                       # Number of instructions committed
system.cpu1.committedOps                      2472496                       # Number of ops (including micro ops) committed
system.cpu1.num_int_alu_accesses              2418412                       # Number of integer alu accesses
system.cpu1.num_fp_alu_accesses                     0                       # Number of float alu accesses
system.cpu1.num_func_calls                      68822                       # number of times a function call or return occured
system.cpu1.num_conditional_control_insts       172132                       # number of instructions that are conditional controls
system.cpu1.num_int_insts                     2418412                       # number of integer instructions
system.cpu1.num_fp_insts                            0                       # number of float instructions
system.cpu1.num_int_register_reads            4913646                       # number of times the integer registers were read
system.cpu1.num_int_register_writes           2006581                       # number of times the integer registers were written
system.cpu1.num_fp_register_reads                   0                       # number of times the floating registers were read
system.cpu1.num_fp_register_writes                  0                       # number of times the floating registers were written
system.cpu1.num_cc_register_reads             1380418                       # number of times the CC registers were read
system.cpu1.num_cc_register_writes             728464                       # number of times the CC registers were written
system.cpu1.num_mem_refs                       589962                       # number of memory refs
system.cpu1.num_load_insts                     367078                       # Number of load instructions
system.cpu1.num_store_insts                    222884                       # Number of store instructions
system.cpu1.num_idle_cycles              3338017414.311169                       # Number of idle cycles
system.cpu1.num_busy_cycles              4856455.688831                       # Number of busy cycles
system.cpu1.not_idle_fraction                0.001453                       # Percentage of non-idle cycles
system.cpu1.idle_fraction                    0.998547                       # Percentage of idle cycles
system.cpu1.Branches                           263264                       # Number of branches fetched
system.cpu1.op_class::No_OpClass                45756      1.85%      1.85% # Class of executed instruction
system.cpu1.op_class::IntAlu                  1815666     73.43%     75.29% # Class of executed instruction
system.cpu1.op_class::IntMult                    5008      0.20%     75.49% # Class of executed instruction
system.cpu1.op_class::IntDiv                    16107      0.65%     76.14% # Class of executed instruction
system.cpu1.op_class::FloatAdd                      0      0.00%     76.14% # Class of executed instruction
system.cpu1.op_class::FloatCmp                      0      0.00%     76.14% # Class of executed instruction
system.cpu1.op_class::FloatCvt                      0      0.00%     76.14% # Class of executed instruction
system.cpu1.op_class::FloatMult                     0      0.00%     76.14% # Class of executed instruction
system.cpu1.op_class::FloatDiv                      0      0.00%     76.14% # Class of executed instruction
system.cpu1.op_class::FloatSqrt                     0      0.00%     76.14% # Class of executed instruction
system.cpu1.op_class::SimdAdd                       0      0.00%     76.14% # Class of executed instruction
system.cpu1.op_class::SimdAddAcc                    0      0.00%     76.14% # Class of executed instruction
system.cpu1.op_class::SimdAlu                       0      0.00%     76.14% # Class of executed instruction
system.cpu1.op_class::SimdCmp                       0      0.00%     76.14% # Class of executed instruction
system.cpu1.op_class::SimdCvt                       0      0.00%     76.14% # Class of executed instruction
system.cpu1.op_class::SimdMisc                      0      0.00%     76.14% # Class of executed instruction
system.cpu1.op_class::SimdMult                      0      0.00%     76.14% # Class of executed instruction
system.cpu1.op_class::SimdMultAcc                   0      0.00%     76.14% # Class of executed instruction
system.cpu1.op_class::SimdShift                     0      0.00%     76.14% # Class of executed instruction
system.cpu1.op_class::SimdShiftAcc                  0      0.00%     76.14% # Class of executed instruction
system.cpu1.op_class::SimdSqrt                      0      0.00%     76.14% # Class of executed instruction
system.cpu1.op_class::SimdFloatAdd                  0      0.00%     76.14% # Class of executed instruction
system.cpu1.op_class::SimdFloatAlu                  0      0.00%     76.14% # Class of executed instruction
system.cpu1.op_class::SimdFloatCmp                  0      0.00%     76.14% # Class of executed instruction
system.cpu1.op_class::SimdFloatCvt                  0      0.00%     76.14% # Class of executed instruction
system.cpu1.op_class::SimdFloatDiv                  0      0.00%     76.14% # Class of executed instruction
system.cpu1.op_class::SimdFloatMisc                 0      0.00%     76.14% # Class of executed instruction
system.cpu1.op_class::SimdFloatMult                 0      0.00%     76.14% # Class of executed instruction
system.cpu1.op_class::SimdFloatMultAcc              0      0.00%     76.14% # Class of executed instruction
system.cpu1.op_class::SimdFloatSqrt                 0      0.00%     76.14% # Class of executed instruction
system.cpu1.op_class::MemRead                  367078     14.85%     90.99% # Class of executed instruction
system.cpu1.op_class::MemWrite                 222884      9.01%    100.00% # Class of executed instruction
system.cpu1.op_class::IprAccess                     0      0.00%    100.00% # Class of executed instruction
system.cpu1.op_class::InstPrefetch                  0      0.00%    100.00% # Class of executed instruction
system.cpu1.op_class::total                   2472499                       # Class of executed instruction
system.cpu2.apic_clk_domain.clock                8000                       # Clock period in ticks
system.cpu2.numCycles                      3346684835                       # number of cpu cycles simulated
system.cpu2.numWorkItemsStarted                     0                       # number of work items this cpu started
system.cpu2.numWorkItemsCompleted                   0                       # number of work items this cpu completed
system.cpu2.kern.inst.arm                           0                       # number of arm instructions executed
system.cpu2.kern.inst.quiesce                       0                       # number of quiesce instructions executed
system.cpu2.committedInsts                    3446952                       # Number of instructions committed
system.cpu2.committedOps                      6851050                       # Number of ops (including micro ops) committed
system.cpu2.num_int_alu_accesses              6736979                       # Number of integer alu accesses
system.cpu2.num_fp_alu_accesses                  1778                       # Number of float alu accesses
system.cpu2.num_func_calls                     180812                       # number of times a function call or return occured
system.cpu2.num_conditional_control_insts       578465                       # number of instructions that are conditional controls
system.cpu2.num_int_insts                     6736979                       # number of integer instructions
system.cpu2.num_fp_insts                         1778                       # number of float instructions
system.cpu2.num_int_register_reads           13359213                       # number of times the integer registers were read
system.cpu2.num_int_register_writes           5458917                       # number of times the integer registers were written
system.cpu2.num_fp_register_reads                2988                       # number of times the floating registers were read
system.cpu2.num_fp_register_writes               1416                       # number of times the floating registers were written
system.cpu2.num_cc_register_reads             4308561                       # number of times the CC registers were read
system.cpu2.num_cc_register_writes            2359409                       # number of times the CC registers were written
system.cpu2.num_mem_refs                      1553653                       # number of memory refs
system.cpu2.num_load_insts                    1014084                       # Number of load instructions
system.cpu2.num_store_insts                    539569                       # Number of store instructions
system.cpu2.num_idle_cycles              3331889152.467940                       # Number of idle cycles
system.cpu2.num_busy_cycles              14795682.532060                       # Number of busy cycles
system.cpu2.not_idle_fraction                0.004421                       # Percentage of non-idle cycles
system.cpu2.idle_fraction                    0.995579                       # Percentage of idle cycles
system.cpu2.Branches                           788131                       # Number of branches fetched
system.cpu2.op_class::No_OpClass                33131      0.48%      0.48% # Class of executed instruction
system.cpu2.op_class::IntAlu                  5248449     76.61%     77.09% # Class of executed instruction
system.cpu2.op_class::IntMult                    5651      0.08%     77.17% # Class of executed instruction
system.cpu2.op_class::IntDiv                     8913      0.13%     77.30% # Class of executed instruction
system.cpu2.op_class::FloatAdd                   1344      0.02%     77.32% # Class of executed instruction
system.cpu2.op_class::FloatCmp                      0      0.00%     77.32% # Class of executed instruction
system.cpu2.op_class::FloatCvt                      0      0.00%     77.32% # Class of executed instruction
system.cpu2.op_class::FloatMult                     0      0.00%     77.32% # Class of executed instruction
system.cpu2.op_class::FloatDiv                      0      0.00%     77.32% # Class of executed instruction
system.cpu2.op_class::FloatSqrt                     0      0.00%     77.32% # Class of executed instruction
system.cpu2.op_class::SimdAdd                       0      0.00%     77.32% # Class of executed instruction
system.cpu2.op_class::SimdAddAcc                    0      0.00%     77.32% # Class of executed instruction
system.cpu2.op_class::SimdAlu                       0      0.00%     77.32% # Class of executed instruction
system.cpu2.op_class::SimdCmp                       0      0.00%     77.32% # Class of executed instruction
system.cpu2.op_class::SimdCvt                       0      0.00%     77.32% # Class of executed instruction
system.cpu2.op_class::SimdMisc                      0      0.00%     77.32% # Class of executed instruction
system.cpu2.op_class::SimdMult                      0      0.00%     77.32% # Class of executed instruction
system.cpu2.op_class::SimdMultAcc                   0      0.00%     77.32% # Class of executed instruction
system.cpu2.op_class::SimdShift                     0      0.00%     77.32% # Class of executed instruction
system.cpu2.op_class::SimdShiftAcc                  0      0.00%     77.32% # Class of executed instruction
system.cpu2.op_class::SimdSqrt                      0      0.00%     77.32% # Class of executed instruction
system.cpu2.op_class::SimdFloatAdd                  0      0.00%     77.32% # Class of executed instruction
system.cpu2.op_class::SimdFloatAlu                  0      0.00%     77.32% # Class of executed instruction
system.cpu2.op_class::SimdFloatCmp                  0      0.00%     77.32% # Class of executed instruction
system.cpu2.op_class::SimdFloatCvt                  0      0.00%     77.32% # Class of executed instruction
system.cpu2.op_class::SimdFloatDiv                  0      0.00%     77.32% # Class of executed instruction
system.cpu2.op_class::SimdFloatMisc                 0      0.00%     77.32% # Class of executed instruction
system.cpu2.op_class::SimdFloatMult                 0      0.00%     77.32% # Class of executed instruction
system.cpu2.op_class::SimdFloatMultAcc              0      0.00%     77.32% # Class of executed instruction
system.cpu2.op_class::SimdFloatSqrt                 0      0.00%     77.32% # Class of executed instruction
system.cpu2.op_class::MemRead                 1014084     14.80%     92.12% # Class of executed instruction
system.cpu2.op_class::MemWrite                 539569      7.88%    100.00% # Class of executed instruction
system.cpu2.op_class::IprAccess                     0      0.00%    100.00% # Class of executed instruction
system.cpu2.op_class::InstPrefetch                  0      0.00%    100.00% # Class of executed instruction
system.cpu2.op_class::total                   6851141                       # Class of executed instruction
system.cpu3.apic_clk_domain.clock                8000                       # Clock period in ticks
system.cpu3.numCycles                      3351828440                       # number of cpu cycles simulated
system.cpu3.numWorkItemsStarted                     0                       # number of work items this cpu started
system.cpu3.numWorkItemsCompleted                   0                       # number of work items this cpu completed
system.cpu3.kern.inst.arm                           0                       # number of arm instructions executed
system.cpu3.kern.inst.quiesce                       0                       # number of quiesce instructions executed
system.cpu3.committedInsts                    1176616                       # Number of instructions committed
system.cpu3.committedOps                      2534401                       # Number of ops (including micro ops) committed
system.cpu3.num_int_alu_accesses              2479272                       # Number of integer alu accesses
system.cpu3.num_fp_alu_accesses                    39                       # Number of float alu accesses
system.cpu3.num_func_calls                      69964                       # number of times a function call or return occured
system.cpu3.num_conditional_control_insts       176894                       # number of instructions that are conditional controls
system.cpu3.num_int_insts                     2479272                       # number of integer instructions
system.cpu3.num_fp_insts                           39                       # number of float instructions
system.cpu3.num_int_register_reads            5042978                       # number of times the integer registers were read
system.cpu3.num_int_register_writes           2055134                       # number of times the integer registers were written
system.cpu3.num_fp_register_reads                  63                       # number of times the floating registers were read
system.cpu3.num_fp_register_writes                 31                       # number of times the floating registers were written
system.cpu3.num_cc_register_reads             1413946                       # number of times the CC registers were read
system.cpu3.num_cc_register_writes             747835                       # number of times the CC registers were written
system.cpu3.num_mem_refs                       606826                       # number of memory refs
system.cpu3.num_load_insts                     376730                       # Number of load instructions
system.cpu3.num_store_insts                    230096                       # Number of store instructions
system.cpu3.num_idle_cycles              3346720373.196625                       # Number of idle cycles
system.cpu3.num_busy_cycles              5108066.803375                       # Number of busy cycles
system.cpu3.not_idle_fraction                0.001524                       # Percentage of non-idle cycles
system.cpu3.idle_fraction                    0.998476                       # Percentage of idle cycles
system.cpu3.Branches                           269787                       # Number of branches fetched
system.cpu3.op_class::No_OpClass                46344      1.83%      1.83% # Class of executed instruction
system.cpu3.op_class::IntAlu                  1859645     73.38%     75.20% # Class of executed instruction
system.cpu3.op_class::IntMult                    5066      0.20%     75.40% # Class of executed instruction
system.cpu3.op_class::IntDiv                    16512      0.65%     76.06% # Class of executed instruction
system.cpu3.op_class::FloatAdd                     30      0.00%     76.06% # Class of executed instruction
system.cpu3.op_class::FloatCmp                      0      0.00%     76.06% # Class of executed instruction
system.cpu3.op_class::FloatCvt                      0      0.00%     76.06% # Class of executed instruction
system.cpu3.op_class::FloatMult                     0      0.00%     76.06% # Class of executed instruction
system.cpu3.op_class::FloatDiv                      0      0.00%     76.06% # Class of executed instruction
system.cpu3.op_class::FloatSqrt                     0      0.00%     76.06% # Class of executed instruction
system.cpu3.op_class::SimdAdd                       0      0.00%     76.06% # Class of executed instruction
system.cpu3.op_class::SimdAddAcc                    0      0.00%     76.06% # Class of executed instruction
system.cpu3.op_class::SimdAlu                       0      0.00%     76.06% # Class of executed instruction
system.cpu3.op_class::SimdCmp                       0      0.00%     76.06% # Class of executed instruction
system.cpu3.op_class::SimdCvt                       0      0.00%     76.06% # Class of executed instruction
system.cpu3.op_class::SimdMisc                      0      0.00%     76.06% # Class of executed instruction
system.cpu3.op_class::SimdMult                      0      0.00%     76.06% # Class of executed instruction
system.cpu3.op_class::SimdMultAcc                   0      0.00%     76.06% # Class of executed instruction
system.cpu3.op_class::SimdShift                     0      0.00%     76.06% # Class of executed instruction
system.cpu3.op_class::SimdShiftAcc                  0      0.00%     76.06% # Class of executed instruction
system.cpu3.op_class::SimdSqrt                      0      0.00%     76.06% # Class of executed instruction
system.cpu3.op_class::SimdFloatAdd                  0      0.00%     76.06% # Class of executed instruction
system.cpu3.op_class::SimdFloatAlu                  0      0.00%     76.06% # Class of executed instruction
system.cpu3.op_class::SimdFloatCmp                  0      0.00%     76.06% # Class of executed instruction
system.cpu3.op_class::SimdFloatCvt                  0      0.00%     76.06% # Class of executed instruction
system.cpu3.op_class::SimdFloatDiv                  0      0.00%     76.06% # Class of executed instruction
system.cpu3.op_class::SimdFloatMisc                 0      0.00%     76.06% # Class of executed instruction
system.cpu3.op_class::SimdFloatMult                 0      0.00%     76.06% # Class of executed instruction
system.cpu3.op_class::SimdFloatMultAcc              0      0.00%     76.06% # Class of executed instruction
system.cpu3.op_class::SimdFloatSqrt                 0      0.00%     76.06% # Class of executed instruction
system.cpu3.op_class::MemRead                  376730     14.86%     90.92% # Class of executed instruction
system.cpu3.op_class::MemWrite                 230096      9.08%    100.00% # Class of executed instruction
system.cpu3.op_class::IprAccess                     0      0.00%    100.00% # Class of executed instruction
system.cpu3.op_class::InstPrefetch                  0      0.00%    100.00% # Class of executed instruction
system.cpu3.op_class::total                   2534423                       # Class of executed instruction
system.iobus.trans_dist::ReadReq                   79                       # Transaction distribution
system.iobus.trans_dist::ReadResp                  79                       # Transaction distribution
system.iobus.trans_dist::WriteReq                1730                       # Transaction distribution
system.iobus.trans_dist::WriteResp               1730                       # Transaction distribution
system.iobus.trans_dist::MessageReq                11                       # Transaction distribution
system.iobus.trans_dist::MessageResp               11                       # Transaction distribution
system.iobus.pkt_count_system.pc.south_bridge.io_apic.int_master::system.ruby.l1_cntrl0.sequencer.pio-slave-port            2                       # Packet count per connected master and slave (bytes)
system.iobus.pkt_count_system.pc.south_bridge.io_apic.int_master::system.ruby.l1_cntrl1.sequencer.pio-slave-port            2                       # Packet count per connected master and slave (bytes)
system.iobus.pkt_count_system.pc.south_bridge.io_apic.int_master::system.ruby.l1_cntrl2.sequencer.pio-slave-port            2                       # Packet count per connected master and slave (bytes)
system.iobus.pkt_count_system.pc.south_bridge.io_apic.int_master::system.ruby.l1_cntrl3.sequencer.pio-slave-port            2                       # Packet count per connected master and slave (bytes)
system.iobus.pkt_count_system.pc.south_bridge.io_apic.int_master::total            8                       # Packet count per connected master and slave (bytes)
system.iobus.pkt_count_system.ruby.l1_cntrl0.sequencer.mem-master-port::system.pc.south_bridge.io_apic.pio            8                       # Packet count per connected master and slave (bytes)
system.iobus.pkt_count_system.ruby.l1_cntrl0.sequencer.mem-master-port::system.pc.com_1.pio            2                       # Packet count per connected master and slave (bytes)
system.iobus.pkt_count_system.ruby.l1_cntrl0.sequencer.mem-master-port::system.ruby.l1_cntrl0.sequencer.pio-slave-port          856                       # Packet count per connected master and slave (bytes)
system.iobus.pkt_count_system.ruby.l1_cntrl0.sequencer.mem-master-port::system.ruby.l1_cntrl1.sequencer.pio-slave-port            2                       # Packet count per connected master and slave (bytes)
system.iobus.pkt_count_system.ruby.l1_cntrl0.sequencer.mem-master-port::system.ruby.l1_cntrl3.sequencer.pio-slave-port            2                       # Packet count per connected master and slave (bytes)
system.iobus.pkt_count_system.ruby.l1_cntrl0.sequencer.mem-master-port::total          870                       # Packet count per connected master and slave (bytes)
system.iobus.pkt_count_system.ruby.l1_cntrl1.sequencer.mem-master-port::system.pc.south_bridge.io_apic.pio            6                       # Packet count per connected master and slave (bytes)
system.iobus.pkt_count_system.ruby.l1_cntrl1.sequencer.mem-master-port::system.pc.com_1.pio          174                       # Packet count per connected master and slave (bytes)
system.iobus.pkt_count_system.ruby.l1_cntrl1.sequencer.mem-master-port::system.ruby.l1_cntrl1.sequencer.pio-slave-port          848                       # Packet count per connected master and slave (bytes)
system.iobus.pkt_count_system.ruby.l1_cntrl1.sequencer.mem-master-port::system.ruby.l1_cntrl2.sequencer.pio-slave-port            2                       # Packet count per connected master and slave (bytes)
system.iobus.pkt_count_system.ruby.l1_cntrl1.sequencer.mem-master-port::total         1030                       # Packet count per connected master and slave (bytes)
system.iobus.pkt_count_system.ruby.l1_cntrl2.sequencer.mem-master-port::system.pc.south_bridge.io_apic.pio            8                       # Packet count per connected master and slave (bytes)
system.iobus.pkt_count_system.ruby.l1_cntrl2.sequencer.mem-master-port::system.ruby.l1_cntrl0.sequencer.pio-slave-port            2                       # Packet count per connected master and slave (bytes)
system.iobus.pkt_count_system.ruby.l1_cntrl2.sequencer.mem-master-port::system.ruby.l1_cntrl1.sequencer.pio-slave-port            2                       # Packet count per connected master and slave (bytes)
system.iobus.pkt_count_system.ruby.l1_cntrl2.sequencer.mem-master-port::system.ruby.l1_cntrl2.sequencer.pio-slave-port          858                       # Packet count per connected master and slave (bytes)
system.iobus.pkt_count_system.ruby.l1_cntrl2.sequencer.mem-master-port::system.ruby.l1_cntrl3.sequencer.pio-slave-port            2                       # Packet count per connected master and slave (bytes)
system.iobus.pkt_count_system.ruby.l1_cntrl2.sequencer.mem-master-port::total          872                       # Packet count per connected master and slave (bytes)
system.iobus.pkt_count_system.ruby.l1_cntrl3.sequencer.mem-master-port::system.pc.south_bridge.io_apic.pio            8                       # Packet count per connected master and slave (bytes)
system.iobus.pkt_count_system.ruby.l1_cntrl3.sequencer.mem-master-port::system.ruby.l1_cntrl0.sequencer.pio-slave-port            2                       # Packet count per connected master and slave (bytes)
system.iobus.pkt_count_system.ruby.l1_cntrl3.sequencer.mem-master-port::system.ruby.l1_cntrl3.sequencer.pio-slave-port          850                       # Packet count per connected master and slave (bytes)
system.iobus.pkt_count_system.ruby.l1_cntrl3.sequencer.mem-master-port::total          860                       # Packet count per connected master and slave (bytes)
system.iobus.pkt_count::total                    3640                       # Packet count per connected master and slave (bytes)
system.iobus.pkt_size_system.pc.south_bridge.io_apic.int_master::system.ruby.l1_cntrl0.sequencer.pio-slave-port            4                       # Cumulative packet size per connected master and slave (bytes)
system.iobus.pkt_size_system.pc.south_bridge.io_apic.int_master::system.ruby.l1_cntrl1.sequencer.pio-slave-port            4                       # Cumulative packet size per connected master and slave (bytes)
system.iobus.pkt_size_system.pc.south_bridge.io_apic.int_master::system.ruby.l1_cntrl2.sequencer.pio-slave-port            4                       # Cumulative packet size per connected master and slave (bytes)
system.iobus.pkt_size_system.pc.south_bridge.io_apic.int_master::system.ruby.l1_cntrl3.sequencer.pio-slave-port            4                       # Cumulative packet size per connected master and slave (bytes)
system.iobus.pkt_size_system.pc.south_bridge.io_apic.int_master::total           16                       # Cumulative packet size per connected master and slave (bytes)
system.iobus.pkt_size_system.ruby.l1_cntrl0.sequencer.mem-master-port::system.pc.south_bridge.io_apic.pio           16                       # Cumulative packet size per connected master and slave (bytes)
system.iobus.pkt_size_system.ruby.l1_cntrl0.sequencer.mem-master-port::system.pc.com_1.pio            1                       # Cumulative packet size per connected master and slave (bytes)
system.iobus.pkt_size_system.ruby.l1_cntrl0.sequencer.mem-master-port::system.ruby.l1_cntrl0.sequencer.pio-slave-port         1712                       # Cumulative packet size per connected master and slave (bytes)
system.iobus.pkt_size_system.ruby.l1_cntrl0.sequencer.mem-master-port::system.ruby.l1_cntrl1.sequencer.pio-slave-port            4                       # Cumulative packet size per connected master and slave (bytes)
system.iobus.pkt_size_system.ruby.l1_cntrl0.sequencer.mem-master-port::system.ruby.l1_cntrl3.sequencer.pio-slave-port            4                       # Cumulative packet size per connected master and slave (bytes)
system.iobus.pkt_size_system.ruby.l1_cntrl0.sequencer.mem-master-port::total         1737                       # Cumulative packet size per connected master and slave (bytes)
system.iobus.pkt_size_system.ruby.l1_cntrl1.sequencer.mem-master-port::system.pc.south_bridge.io_apic.pio           12                       # Cumulative packet size per connected master and slave (bytes)
system.iobus.pkt_size_system.ruby.l1_cntrl1.sequencer.mem-master-port::system.pc.com_1.pio           87                       # Cumulative packet size per connected master and slave (bytes)
system.iobus.pkt_size_system.ruby.l1_cntrl1.sequencer.mem-master-port::system.ruby.l1_cntrl1.sequencer.pio-slave-port         1696                       # Cumulative packet size per connected master and slave (bytes)
system.iobus.pkt_size_system.ruby.l1_cntrl1.sequencer.mem-master-port::system.ruby.l1_cntrl2.sequencer.pio-slave-port            4                       # Cumulative packet size per connected master and slave (bytes)
system.iobus.pkt_size_system.ruby.l1_cntrl1.sequencer.mem-master-port::total         1799                       # Cumulative packet size per connected master and slave (bytes)
system.iobus.pkt_size_system.ruby.l1_cntrl2.sequencer.mem-master-port::system.pc.south_bridge.io_apic.pio           16                       # Cumulative packet size per connected master and slave (bytes)
system.iobus.pkt_size_system.ruby.l1_cntrl2.sequencer.mem-master-port::system.ruby.l1_cntrl0.sequencer.pio-slave-port            4                       # Cumulative packet size per connected master and slave (bytes)
system.iobus.pkt_size_system.ruby.l1_cntrl2.sequencer.mem-master-port::system.ruby.l1_cntrl1.sequencer.pio-slave-port            4                       # Cumulative packet size per connected master and slave (bytes)
system.iobus.pkt_size_system.ruby.l1_cntrl2.sequencer.mem-master-port::system.ruby.l1_cntrl2.sequencer.pio-slave-port         1716                       # Cumulative packet size per connected master and slave (bytes)
system.iobus.pkt_size_system.ruby.l1_cntrl2.sequencer.mem-master-port::system.ruby.l1_cntrl3.sequencer.pio-slave-port            4                       # Cumulative packet size per connected master and slave (bytes)
system.iobus.pkt_size_system.ruby.l1_cntrl2.sequencer.mem-master-port::total         1744                       # Cumulative packet size per connected master and slave (bytes)
system.iobus.pkt_size_system.ruby.l1_cntrl3.sequencer.mem-master-port::system.pc.south_bridge.io_apic.pio           16                       # Cumulative packet size per connected master and slave (bytes)
system.iobus.pkt_size_system.ruby.l1_cntrl3.sequencer.mem-master-port::system.ruby.l1_cntrl0.sequencer.pio-slave-port            4                       # Cumulative packet size per connected master and slave (bytes)
system.iobus.pkt_size_system.ruby.l1_cntrl3.sequencer.mem-master-port::system.ruby.l1_cntrl3.sequencer.pio-slave-port         1700                       # Cumulative packet size per connected master and slave (bytes)
system.iobus.pkt_size_system.ruby.l1_cntrl3.sequencer.mem-master-port::total         1720                       # Cumulative packet size per connected master and slave (bytes)
system.iobus.pkt_size::total                     7016                       # Cumulative packet size per connected master and slave (bytes)
system.iobus.reqLayer8.occupancy                28996                       # Layer occupancy (ticks)
system.iobus.reqLayer8.utilization                0.0                       # Layer utilization (%)
system.iobus.reqLayer12.occupancy              113500                       # Layer occupancy (ticks)
system.iobus.reqLayer12.utilization               0.0                       # Layer utilization (%)
system.iobus.reqLayer17.occupancy             1126677                       # Layer occupancy (ticks)
system.iobus.reqLayer17.utilization               0.0                       # Layer utilization (%)
system.iobus.reqLayer18.occupancy             1063500                       # Layer occupancy (ticks)
system.iobus.reqLayer18.utilization               0.0                       # Layer utilization (%)
system.iobus.reqLayer19.occupancy             1070498                       # Layer occupancy (ticks)
system.iobus.reqLayer19.utilization               0.0                       # Layer utilization (%)
system.iobus.reqLayer20.occupancy             1066000                       # Layer occupancy (ticks)
system.iobus.reqLayer20.utilization               0.0                       # Layer utilization (%)
system.iobus.respLayer0.occupancy                5500                       # Layer occupancy (ticks)
system.iobus.respLayer0.utilization               0.0                       # Layer utilization (%)
system.iobus.respLayer2.occupancy              653500                       # Layer occupancy (ticks)
system.iobus.respLayer2.utilization               0.0                       # Layer utilization (%)
system.iobus.respLayer4.occupancy              794000                       # Layer occupancy (ticks)
system.iobus.respLayer4.utilization               0.0                       # Layer utilization (%)
system.iobus.respLayer6.occupancy              656000                       # Layer occupancy (ticks)
system.iobus.respLayer6.utilization               0.0                       # Layer utilization (%)
system.iobus.respLayer8.occupancy              645500                       # Layer occupancy (ticks)
system.iobus.respLayer8.utilization               0.0                       # Layer utilization (%)
system.pc.south_bridge.ide.disks.dma_read_full_pages            0                       # Number of full page size DMA reads (not PRD).
system.pc.south_bridge.ide.disks.dma_read_bytes            0                       # Number of bytes transfered via DMA reads (not PRD).
system.pc.south_bridge.ide.disks.dma_read_txs            0                       # Number of DMA read transactions (not PRD).
system.pc.south_bridge.ide.disks.dma_write_full_pages            0                       # Number of full page size DMA writes.
system.pc.south_bridge.ide.disks.dma_write_bytes            0                       # Number of bytes transfered via DMA writes.
system.pc.south_bridge.ide.disks.dma_write_txs            0                       # Number of DMA write transactions.
system.ruby.clk_domain.clock                      500                       # Clock period in ticks
system.ruby.outstanding_req_hist_seqr::bucket_size            1                      
system.ruby.outstanding_req_hist_seqr::max_bucket            9                      
system.ruby.outstanding_req_hist_seqr::samples   1224695750                      
system.ruby.outstanding_req_hist_seqr::mean     1.000000                      
system.ruby.outstanding_req_hist_seqr::gmean     1.000000                      
system.ruby.outstanding_req_hist_seqr::stdev     0.000424                      
system.ruby.outstanding_req_hist_seqr    |           0      0.00%      0.00% |  1224695530    100.00%    100.00% |         220      0.00%    100.00% |           0      0.00%    100.00% |           0      0.00%    100.00% |           0      0.00%    100.00% |           0      0.00%    100.00% |           0      0.00%    100.00% |           0      0.00%    100.00% |           0      0.00%    100.00%
system.ruby.outstanding_req_hist_seqr::total   1224695750                      
system.ruby.latency_hist_seqr::bucket_size          256                      
system.ruby.latency_hist_seqr::max_bucket         2559                      
system.ruby.latency_hist_seqr::samples     1224695750                      
system.ruby.latency_hist_seqr::mean          1.745120                      
system.ruby.latency_hist_seqr::gmean         1.058469                      
system.ruby.latency_hist_seqr::stdev        10.130461                      
system.ruby.latency_hist_seqr            |  1224509577     99.98%     99.98% |       98874      0.01%     99.99% |       81781      0.01%    100.00% |        3857      0.00%    100.00% |        1193      0.00%    100.00% |         327      0.00%    100.00% |         104      0.00%    100.00% |          25      0.00%    100.00% |          12      0.00%    100.00% |           0      0.00%    100.00%
system.ruby.latency_hist_seqr::total       1224695750                      
system.ruby.hit_latency_hist_seqr::bucket_size            2                      
[...]
system.ruby.L1Cache_Controller.O.Trigger_L2_to_L1I::total        22552                      
system.ruby.L1Cache_Controller.O.Other_GETX |        1058     10.40%     10.40% |        2314     22.75%     33.15% |        1080     10.62%     43.77% |        5720     56.23%    100.00%
system.ruby.L1Cache_Controller.O.Other_GETX::total        10172                      
system.ruby.L1Cache_Controller.O.Other_GETS |        1458      8.55%      8.55% |        4764     27.95%     36.51% |        3388     19.88%     56.38% |        7434     43.62%    100.00%
system.ruby.L1Cache_Controller.O.Other_GETS::total        17044                      
system.ruby.L1Cache_Controller.O.Merged_GETS |           0      0.00%      0.00% |           1    100.00%    100.00% |           0      0.00%    100.00% |           0      0.00%    100.00%
system.ruby.L1Cache_Controller.O.Merged_GETS::total            1                      
system.ruby.L1Cache_Controller.M.Load    |    32917719     98.78%     98.78% |       69097      0.21%     98.98% |      233732      0.70%     99.69% |      104732      0.31%    100.00%
system.ruby.L1Cache_Controller.M.Load::total     33325280                      
system.ruby.L1Cache_Controller.M.Ifetch  |  1006720218     99.46%     99.46% |       61655      0.01%     99.46% |     4148709      0.41%     99.87% |     1294570      0.13%    100.00%
system.ruby.L1Cache_Controller.M.Ifetch::total   1012225152                      
system.ruby.L1Cache_Controller.M.Store   |       32886     48.02%     48.02% |        1981      2.89%     50.92% |       31226     45.60%     96.52% |        2385      3.48%    100.00%
system.ruby.L1Cache_Controller.M.Store::total        68478                      
system.ruby.L1Cache_Controller.M.L2_Replacement |     3168734     99.85%     99.85% |          34      0.00%     99.85% |        4655      0.15%     99.99% |         202      0.01%    100.00%
system.ruby.L1Cache_Controller.M.L2_Replacement::total      3173625                      
system.ruby.L1Cache_Controller.M.L1_to_L2 |     7402678     99.65%     99.65% |        4356      0.06%     99.71% |       13971      0.19%     99.90% |        7444      0.10%    100.00%
system.ruby.L1Cache_Controller.M.L1_to_L2::total      7428449                      
system.ruby.L1Cache_Controller.M.Trigger_L2_to_L1D |     4230000     99.82%     99.82% |         784      0.02%     99.83% |        5443      0.13%     99.96% |        1563      0.04%    100.00%
system.ruby.L1Cache_Controller.M.Trigger_L2_to_L1D::total      4237790                      
system.ruby.L1Cache_Controller.M.Trigger_L2_to_L1I |        2564     48.86%     48.86% |         320      6.10%     54.95% |        1123     21.40%     76.35% |        1241     23.65%    100.00%
system.ruby.L1Cache_Controller.M.Trigger_L2_to_L1I::total         5248                      
system.ruby.L1Cache_Controller.M.Other_GETX |         168      6.20%      6.20% |         626     23.10%     29.30% |         820     30.26%     59.56% |        1096     40.44%    100.00%
system.ruby.L1Cache_Controller.M.Other_GETX::total         2710                      
system.ruby.L1Cache_Controller.M.Other_GETS |        2511     16.30%     16.30% |        3340     21.68%     37.98% |        2302     14.94%     52.92% |        7254     47.08%    100.00%
system.ruby.L1Cache_Controller.M.Other_GETS::total        15407                      
system.ruby.L1Cache_Controller.M.Merged_GETS |          21     24.71%     24.71% |          58     68.24%     92.94% |           4      4.71%     97.65% |           2      2.35%    100.00%
system.ruby.L1Cache_Controller.M.Merged_GETS::total           85                      
system.ruby.L1Cache_Controller.MM.Load   |    21737503     85.62%     85.62% |      355217      1.40%     87.01% |     2654924     10.46%     97.47% |      642108      2.53%    100.00%
system.ruby.L1Cache_Controller.MM.Load::total     25389752                      
system.ruby.L1Cache_Controller.MM.Store  |    69998940     95.08%     95.08% |      396291      0.54%     95.62% |     2533259      3.44%     99.06% |      692652      0.94%    100.00%
system.ruby.L1Cache_Controller.MM.Store::total     73621142                      
system.ruby.L1Cache_Controller.MM.L2_Replacement |     2843489     98.53%     98.53% |          52      0.00%     98.53% |       41926      1.45%     99.98% |         561      0.02%    100.00%
system.ruby.L1Cache_Controller.MM.L2_Replacement::total      2886028                      
system.ruby.L1Cache_Controller.MM.L1_to_L2 |    15403975     98.79%     98.79% |        8494      0.05%     98.85% |      162214      1.04%     99.89% |       17245      0.11%    100.00%
system.ruby.L1Cache_Controller.MM.L1_to_L2::total     15591928                      
system.ruby.L1Cache_Controller.MM.Trigger_L2_to_L1D |    12538893     99.04%     99.04% |        3341      0.03%     99.07% |      111672      0.88%     99.95% |        6565      0.05%    100.00%
system.ruby.L1Cache_Controller.MM.Trigger_L2_to_L1D::total     12660471                      
system.ruby.L1Cache_Controller.MM.Other_GETX |        4040     32.79%     32.79% |        2358     19.14%     51.93% |        2064     16.75%     68.68% |        3859     31.32%    100.00%
system.ruby.L1Cache_Controller.MM.Other_GETX::total        12321                      
system.ruby.L1Cache_Controller.MM.Other_GETS |       17707     55.64%     55.64% |        3256     10.23%     65.87% |        4583     14.40%     80.27% |        6278     19.73%    100.00%
system.ruby.L1Cache_Controller.MM.Other_GETS::total        31824                      
system.ruby.L1Cache_Controller.MM.Merged_GETS |          57     20.96%     20.96% |         117     43.01%     63.97% |          55     20.22%     84.19% |          43     15.81%    100.00%
system.ruby.L1Cache_Controller.MM.Merged_GETS::total          272                      
system.ruby.L1Cache_Controller.SR.Load   |      117647     90.61%     90.61% |        2514      1.94%     92.55% |        6866      5.29%     97.84% |        2805      2.16%    100.00%
system.ruby.L1Cache_Controller.SR.Load::total       129832                      
system.ruby.L1Cache_Controller.SR.Ifetch |       22780     25.49%     25.49% |       12207     13.66%     39.14% |       32712     36.60%     75.74% |       21683     24.26%    100.00%
system.ruby.L1Cache_Controller.SR.Ifetch::total        89382                      
system.ruby.L1Cache_Controller.SR.Store  |         194     53.15%     53.15% |           4      1.10%     54.25% |         146     40.00%     94.25% |          21      5.75%    100.00%
system.ruby.L1Cache_Controller.SR.Store::total          365                      
system.ruby.L1Cache_Controller.OR.Load   |        3590     57.61%     57.61% |        1165     18.69%     76.30% |         284      4.56%     80.86% |        1193     19.14%    100.00%
system.ruby.L1Cache_Controller.OR.Load::total         6232                      
system.ruby.L1Cache_Controller.OR.Ifetch |       12046     53.41%     53.41% |        7134     31.63%     85.05% |        2311     10.25%     95.30% |        1061      4.70%    100.00%
system.ruby.L1Cache_Controller.OR.Ifetch::total        22552                      
system.ruby.L1Cache_Controller.OR.Store  |           5     20.00%     20.00% |           5     20.00%     40.00% |           2      8.00%     48.00% |          13     52.00%    100.00%
system.ruby.L1Cache_Controller.OR.Store::total           25                      
system.ruby.L1Cache_Controller.MR.Load   |     4229656     99.86%     99.86% |         708      0.02%     99.88% |        4000      0.09%     99.97% |        1236      0.03%    100.00%
system.ruby.L1Cache_Controller.MR.Load::total      4235600                      
system.ruby.L1Cache_Controller.MR.Ifetch |        2564     48.86%     48.86% |         320      6.10%     54.95% |        1123     21.40%     76.35% |        1241     23.65%    100.00%
system.ruby.L1Cache_Controller.MR.Ifetch::total         5248                      
system.ruby.L1Cache_Controller.MR.Store  |         344     15.71%     15.71% |          76      3.47%     19.18% |        1443     65.89%     85.07% |         327     14.93%    100.00%
system.ruby.L1Cache_Controller.MR.Store::total         2190                      
system.ruby.L1Cache_Controller.MMR.Load  |     5596794     98.61%     98.61% |        1029      0.02%     98.63% |       73414      1.29%     99.92% |        4293      0.08%    100.00%
system.ruby.L1Cache_Controller.MMR.Load::total      5675530                      
system.ruby.L1Cache_Controller.MMR.Store |     6942099     99.39%     99.39% |        2312      0.03%     99.42% |       38258      0.55%     99.97% |        2272      0.03%    100.00%
system.ruby.L1Cache_Controller.MMR.Store::total      6984941                      
system.ruby.L1Cache_Controller.IM.Ack    |     8487904     99.13%     99.13% |       11060      0.13%     99.26% |       36039      0.42%     99.68% |       27726      0.32%    100.00%
system.ruby.L1Cache_Controller.IM.Ack::total      8562729                      
system.ruby.L1Cache_Controller.IM.Data   |        1326     42.20%     42.20% |         354     11.27%     53.47% |        1107     35.23%     88.70% |         355     11.30%    100.00%
system.ruby.L1Cache_Controller.IM.Data::total         3142                      
system.ruby.L1Cache_Controller.IM.Exclusive_Data |     2831209     98.90%     98.90% |        4199      0.15%     99.04% |       17186      0.60%     99.65% |       10160      0.35%    100.00%
system.ruby.L1Cache_Controller.IM.Exclusive_Data::total      2862754                      
system.ruby.L1Cache_Controller.SM.Ack    |        4017     43.97%     43.97% |        1161     12.71%     56.68% |        2631     28.80%     85.48% |        1326     14.52%    100.00%
system.ruby.L1Cache_Controller.SM.Ack::total         9135                      
system.ruby.L1Cache_Controller.SM.Data   |        2697     37.64%     37.64% |         965     13.47%     51.10% |        2207     30.80%     81.90% |        1297     18.10%    100.00%
system.ruby.L1Cache_Controller.SM.Data::total         7166                      
system.ruby.L1Cache_Controller.OM.Ack    |         114     15.38%     15.38% |         219     29.55%     44.94% |         135     18.22%     63.16% |         273     36.84%    100.00%
system.ruby.L1Cache_Controller.OM.Ack::total          741                      
system.ruby.L1Cache_Controller.OM.All_acks_no_sharers |          38     15.38%     15.38% |          73     29.55%     44.94% |          45     18.22%     63.16% |          91     36.84%    100.00%
system.ruby.L1Cache_Controller.OM.All_acks_no_sharers::total          247                      
system.ruby.L1Cache_Controller.ISM.Ack   |        2106     27.01%     27.01% |        1180     15.13%     42.14% |        2872     36.83%     78.97% |        1640     21.03%    100.00%
system.ruby.L1Cache_Controller.ISM.Ack::total         7798                      
system.ruby.L1Cache_Controller.ISM.All_acks_no_sharers |        4023     39.03%     39.03% |        1319     12.80%     51.82% |        3314     32.15%     83.97% |        1652     16.03%    100.00%
system.ruby.L1Cache_Controller.ISM.All_acks_no_sharers::total        10308                      
system.ruby.L1Cache_Controller.M_W.Load  |          25     16.56%     16.56% |          13      8.61%     25.17% |          59     39.07%     64.24% |          54     35.76%    100.00%
system.ruby.L1Cache_Controller.M_W.Load::total          151                      
system.ruby.L1Cache_Controller.M_W.Store |          16     15.53%     15.53% |           3      2.91%     18.45% |           3      2.91%     21.36% |          81     78.64%    100.00%
system.ruby.L1Cache_Controller.M_W.Store::total          103                      
system.ruby.L1Cache_Controller.M_W.Ack   |        2675      7.60%      7.60% |        2505      7.12%     14.72% |       21856     62.10%     76.81% |        8161     23.19%    100.00%
system.ruby.L1Cache_Controller.M_W.Ack::total        35197                      
system.ruby.L1Cache_Controller.M_W.All_acks_no_sharers |     3203789     98.12%     98.12% |        7266      0.22%     98.34% |       41412      1.27%     99.61% |       12776      0.39%    100.00%
system.ruby.L1Cache_Controller.M_W.All_acks_no_sharers::total      3265243                      
system.ruby.L1Cache_Controller.MM_W.Store |         965     16.33%     16.33% |         341      5.77%     22.10% |        3785     64.04%     86.14% |         819     13.86%    100.00%
system.ruby.L1Cache_Controller.MM_W.Store::total         5910                      
system.ruby.L1Cache_Controller.MM_W.Ack  |        3365     23.33%     23.33% |         715      4.96%     28.29% |        8779     60.86%     89.15% |        1565     10.85%    100.00%
system.ruby.L1Cache_Controller.MM_W.Ack::total        14424                      
system.ruby.L1Cache_Controller.MM_W.All_acks_no_sharers |     2831225     98.90%     98.90% |        4202      0.15%     99.04% |       17189      0.60%     99.64% |       10241      0.36%    100.00%
system.ruby.L1Cache_Controller.MM_W.All_acks_no_sharers::total      2862857                      
system.ruby.L1Cache_Controller.IS.Other_GETS |           0      0.00%      0.00% |           0      0.00%      0.00% |           0      0.00%      0.00% |           1    100.00%    100.00%
system.ruby.L1Cache_Controller.IS.Other_GETS::total            1                      
system.ruby.L1Cache_Controller.IS.Ack    |     9619273     98.29%     98.29% |       26657      0.27%     98.56% |      112651      1.15%     99.71% |       28100      0.29%    100.00%
system.ruby.L1Cache_Controller.IS.Ack::total      9786681                      
system.ruby.L1Cache_Controller.IS.Shared_Ack |       27860     58.43%     58.43% |        1855      3.89%     62.32% |       14826     31.09%     93.41% |        3144      6.59%    100.00%
system.ruby.L1Cache_Controller.IS.Shared_Ack::total        47685                      
system.ruby.L1Cache_Controller.IS.Data   |       10586     45.48%     45.48% |         925      3.97%     49.45% |       10377     44.58%     94.03% |        1389      5.97%    100.00%
system.ruby.L1Cache_Controller.IS.Data::total        23277                      
system.ruby.L1Cache_Controller.IS.Shared_Data |       10691     32.58%     32.58% |        8203     25.00%     57.59% |        9249     28.19%     85.78% |        4667     14.22%    100.00%
system.ruby.L1Cache_Controller.IS.Shared_Data::total        32810                      
system.ruby.L1Cache_Controller.IS.Exclusive_Data |     3203805     98.12%     98.12% |        7269      0.22%     98.34% |       41415      1.27%     99.61% |       12857      0.39%    100.00%
system.ruby.L1Cache_Controller.IS.Exclusive_Data::total      3265346                      
system.ruby.L1Cache_Controller.SS.Load   |         233     54.44%     54.44% |           9      2.10%     56.54% |         142     33.18%     89.72% |          44     10.28%    100.00%
system.ruby.L1Cache_Controller.SS.Load::total          428                      
system.ruby.L1Cache_Controller.SS.Ifetch |        2630     45.16%     45.16% |         440      7.55%     52.71% |        1692     29.05%     81.77% |        1062     18.23%    100.00%
system.ruby.L1Cache_Controller.SS.Ifetch::total         5824                      
system.ruby.L1Cache_Controller.SS.Store  |           1      5.26%      5.26% |          12     63.16%     68.42% |           2     10.53%     78.95% |           4     21.05%    100.00%
system.ruby.L1Cache_Controller.SS.Store::total           19                      
system.ruby.L1Cache_Controller.SS.Ack    |        3790     21.34%     21.34% |        5669     31.93%     53.27% |        5445     30.67%     83.94% |        2852     16.06%    100.00%
system.ruby.L1Cache_Controller.SS.Ack::total        17756                      
system.ruby.L1Cache_Controller.SS.Shared_Ack |        7092     61.53%     61.53% |         602      5.22%     66.75% |        2559     22.20%     88.95% |        1274     11.05%    100.00%
system.ruby.L1Cache_Controller.SS.Shared_Ack::total        11527                      
system.ruby.L1Cache_Controller.SS.All_acks |       20340     39.58%     39.58% |        8913     17.34%     56.92% |       16126     31.38%     88.30% |        6015     11.70%    100.00%
system.ruby.L1Cache_Controller.SS.All_acks::total        51394                      
system.ruby.L1Cache_Controller.SS.All_acks_no_sharers |         937     19.97%     19.97% |         215      4.58%     24.55% |        3500     74.58%     99.13% |          41      0.87%    100.00%
system.ruby.L1Cache_Controller.SS.All_acks_no_sharers::total         4693                      
system.ruby.L1Cache_Controller.OI.Load   |           5     83.33%     83.33% |           0      0.00%     83.33% |           1     16.67%    100.00% |           0      0.00%    100.00%
system.ruby.L1Cache_Controller.OI.Load::total            6                      
system.ruby.L1Cache_Controller.OI.Ifetch |           1     33.33%     33.33% |           0      0.00%     33.33% |           2     66.67%    100.00% |           0      0.00%    100.00%
system.ruby.L1Cache_Controller.OI.Ifetch::total            3                      
system.ruby.L1Cache_Controller.OI.Writeback_Ack |        4171     67.21%     67.21% |          31      0.50%     67.71% |        1703     27.44%     95.15% |         301      4.85%    100.00%
system.ruby.L1Cache_Controller.OI.Writeback_Ack::total         6206                      
system.ruby.L1Cache_Controller.MI.Load   |        1392     91.22%     91.22% |           1      0.07%     91.28% |         124      8.13%     99.41% |           9      0.59%    100.00%
system.ruby.L1Cache_Controller.MI.Load::total         1526                      
system.ruby.L1Cache_Controller.MI.Ifetch |           2     50.00%     50.00% |           0      0.00%     50.00% |           2     50.00%    100.00% |           0      0.00%    100.00%
system.ruby.L1Cache_Controller.MI.Ifetch::total            4                      
system.ruby.L1Cache_Controller.MI.Store  |        7608     98.50%     98.50% |           0      0.00%     98.50% |         114      1.48%     99.97% |           2      0.03%    100.00%
system.ruby.L1Cache_Controller.MI.Store::total         7724                      
system.ruby.L1Cache_Controller.MI.Writeback_Ack |     6012223     99.22%     99.22% |          86      0.00%     99.22% |       46581      0.77%     99.99% |         763      0.01%    100.00%
system.ruby.L1Cache_Controller.MI.Writeback_Ack::total      6059653                      
system.ruby.L1Cache_Controller.ST.Complete_L2_to_L1 |      140621     64.04%     64.04% |       14725      6.71%     70.75% |       39724     18.09%     88.84% |       24509     11.16%    100.00%
system.ruby.L1Cache_Controller.ST.Complete_L2_to_L1::total       219579                      
system.ruby.L1Cache_Controller.OT.Complete_L2_to_L1 |       15641     54.29%     54.29% |        8304     28.82%     83.12% |        2597      9.01%     92.13% |        2267      7.87%    100.00%
system.ruby.L1Cache_Controller.OT.Complete_L2_to_L1::total        28809                      
system.ruby.L1Cache_Controller.MT.Complete_L2_to_L1 |     4232564     99.75%     99.75% |        1104      0.03%     99.78% |        6566      0.15%     99.93% |        2804      0.07%    100.00%
system.ruby.L1Cache_Controller.MT.Complete_L2_to_L1::total      4243038                      
system.ruby.L1Cache_Controller.MMT.Complete_L2_to_L1 |    12538893     99.04%     99.04% |        3341      0.03%     99.07% |      111672      0.88%     99.95% |        6565      0.05%    100.00%
system.ruby.L1Cache_Controller.MMT.Complete_L2_to_L1::total     12660471                      

---------- End Simulation Statistics   ----------
