
---------- Begin Simulation Statistics ----------
sim_seconds                                  3.047888                       # Number of seconds simulated
sim_ticks                                3047888053000                       # Number of ticks simulated
final_tick                               55952932715001                       # Number of ticks from beginning of simulation (restored from checkpoints and never reset)
sim_freq                                 1000000000000                       # Frequency of simulated ticks
host_inst_rate                                 125782                       # Simulator instruction rate (inst/s)
host_op_rate                                   210826                       # Simulator op (including micro ops) rate (op/s)
host_tick_rate                              249929214                       # Simulator tick rate (ticks/s)
host_mem_usage                                1940280                       # Number of bytes of host memory used
host_seconds                                 12195.01                       # Real time elapsed on the host
sim_insts                                  1533917088                       # Number of instructions simulated
sim_ops                                    2571025200                       # Number of ops (including micro ops) simulated
system.voltage_domain.voltage                       1                       # Voltage in Volts
system.clk_domain.clock                          1000                       # Clock period in ticks
system.mem_ctrls.bytes_read::ruby.dir_cntrl0     10663872                       # Number of bytes read from this memory
system.mem_ctrls.bytes_read::total           10663872                       # Number of bytes read from this memory
system.mem_ctrls.bytes_written::ruby.dir_cntrl0      1124224                       # Number of bytes written to this memory
system.mem_ctrls.bytes_written::total         1124224                       # Number of bytes written to this memory
system.mem_ctrls.num_reads::ruby.dir_cntrl0       166623                       # Number of read requests responded to by this memory
system.mem_ctrls.num_reads::total              166623                       # Number of read requests responded to by this memory
system.mem_ctrls.num_writes::ruby.dir_cntrl0        17566                       # Number of write requests responded to by this memory
system.mem_ctrls.num_writes::total              17566                       # Number of write requests responded to by this memory
system.mem_ctrls.bw_read::ruby.dir_cntrl0      3498774                       # Total read bandwidth from this memory (bytes/s)
system.mem_ctrls.bw_read::total               3498774                       # Total read bandwidth from this memory (bytes/s)
system.mem_ctrls.bw_write::ruby.dir_cntrl0       368853                       # Write bandwidth from this memory (bytes/s)
system.mem_ctrls.bw_write::total               368853                       # Write bandwidth from this memory (bytes/s)
system.mem_ctrls.bw_total::ruby.dir_cntrl0      3867628                       # Total bandwidth to/from this memory (bytes/s)
system.mem_ctrls.bw_total::total              3867628                       # Total bandwidth to/from this memory (bytes/s)
system.mem_ctrls.readReqs                      166623                       # Number of read requests accepted
system.mem_ctrls.writeReqs                      17566                       # Number of write requests accepted
system.mem_ctrls.readBursts                    166623                       # Number of DRAM read bursts, including those serviced by the write queue
system.mem_ctrls.writeBursts                    17566                       # Number of DRAM write bursts, including those merged in the write queue
system.mem_ctrls.bytesReadDRAM               10660992                       # Total number of bytes read from DRAM
system.mem_ctrls.bytesReadWrQ                    2880                       # Total number of bytes read from write queue
system.mem_ctrls.bytesWritten                 1123776                       # Total number of bytes written to DRAM
system.mem_ctrls.bytesReadSys                10663872                       # Total read bytes from the system interface side
system.mem_ctrls.bytesWrittenSys              1124224                       # Total written bytes from the system interface side
system.mem_ctrls.servicedByWrQ                     45                       # Number of DRAM read bursts serviced by the write queue
system.mem_ctrls.mergedWrBursts                     0                       # Number of DRAM write bursts merged with an existing one
system.mem_ctrls.neitherReadNorWriteReqs            0                       # Number of requests that are neither read nor write
system.mem_ctrls.perBankRdBursts::0             10287                       # Per bank write bursts
system.mem_ctrls.perBankRdBursts::1             10424                       # Per bank write bursts
system.mem_ctrls.perBankRdBursts::2             10522                       # Per bank write bursts
system.mem_ctrls.perBankRdBursts::3              9755                       # Per bank write bursts
system.mem_ctrls.perBankRdBursts::4             11567                       # Per bank write bursts
system.mem_ctrls.perBankRdBursts::5             10839                       # Per bank write bursts
system.mem_ctrls.perBankRdBursts::6             10721                       # Per bank write bursts
system.mem_ctrls.perBankRdBursts::7             11849                       # Per bank write bursts
system.mem_ctrls.perBankRdBursts::8             10322                       # Per bank write bursts
system.mem_ctrls.perBankRdBursts::9             11198                       # Per bank write bursts
system.mem_ctrls.perBankRdBursts::10             9887                       # Per bank write bursts
system.mem_ctrls.perBankRdBursts::11             9588                       # Per bank write bursts
system.mem_ctrls.perBankRdBursts::12             9534                       # Per bank write bursts
system.mem_ctrls.perBankRdBursts::13             9345                       # Per bank write bursts
system.mem_ctrls.perBankRdBursts::14            10693                       # Per bank write bursts
system.mem_ctrls.perBankRdBursts::15            10047                       # Per bank write bursts
system.mem_ctrls.perBankWrBursts::0              1237                       # Per bank write bursts
system.mem_ctrls.perBankWrBursts::1              1217                       # Per bank write bursts
system.mem_ctrls.perBankWrBursts::2              1422                       # Per bank write bursts
system.mem_ctrls.perBankWrBursts::3               867                       # Per bank write bursts
system.mem_ctrls.perBankWrBursts::4              1214                       # Per bank write bursts
system.mem_ctrls.perBankWrBursts::5              1176                       # Per bank write bursts
system.mem_ctrls.perBankWrBursts::6              1034                       # Per bank write bursts
system.mem_ctrls.perBankWrBursts::7              1280                       # Per bank write bursts
system.mem_ctrls.perBankWrBursts::8               830                       # Per bank write bursts
system.mem_ctrls.perBankWrBursts::9              1146                       # Per bank write bursts
system.mem_ctrls.perBankWrBursts::10              733                       # Per bank write bursts
system.mem_ctrls.perBankWrBursts::11              711                       # Per bank write bursts
system.mem_ctrls.perBankWrBursts::12              949                       # Per bank write bursts
system.mem_ctrls.perBankWrBursts::13              946                       # Per bank write bursts
system.mem_ctrls.perBankWrBursts::14             1518                       # Per bank write bursts
system.mem_ctrls.perBankWrBursts::15             1279                       # Per bank write bursts
system.mem_ctrls.numRdRetry                         0                       # Number of times read queue was full causing retry
system.mem_ctrls.numWrRetry                         0                       # Number of times write queue was full causing retry
system.mem_ctrls.totGap                  3047887982000                       # Total gap between requests
system.mem_ctrls.readPktSize::0                     0                       # Read request sizes (log2)
system.mem_ctrls.readPktSize::1                     0                       # Read request sizes (log2)
system.mem_ctrls.readPktSize::2                     0                       # Read request sizes (log2)
system.mem_ctrls.readPktSize::3                     0                       # Read request sizes (log2)
system.mem_ctrls.readPktSize::4                     0                       # Read request sizes (log2)
system.mem_ctrls.readPktSize::5                     0                       # Read request sizes (log2)
system.mem_ctrls.readPktSize::6                166623                       # Read request sizes (log2)
system.mem_ctrls.writePktSize::0                    0                       # Write request sizes (log2)
system.mem_ctrls.writePktSize::1                    0                       # Write request sizes (log2)
system.mem_ctrls.writePktSize::2                    0                       # Write request sizes (log2)
system.mem_ctrls.writePktSize::3                    0                       # Write request sizes (log2)
system.mem_ctrls.writePktSize::4                    0                       # Write request sizes (log2)
system.mem_ctrls.writePktSize::5                    0                       # Write request sizes (log2)
system.mem_ctrls.writePktSize::6                17566                       # Write request sizes (log2)
system.mem_ctrls.rdQLenPdf::0                  164379                       # What read queue length does an incoming req see
system.mem_ctrls.rdQLenPdf::1                    2185                       # What read queue length does an incoming req see
system.mem_ctrls.rdQLenPdf::2                      14                       # What read queue length does an incoming req see
system.mem_ctrls.rdQLenPdf::3                       0                       # What read queue length does an incoming req see
system.mem_ctrls.rdQLenPdf::4                       0                       # What read queue length does an incoming req see
system.mem_ctrls.rdQLenPdf::5                       0                       # What read queue length does an incoming req see
system.mem_ctrls.rdQLenPdf::6                       0                       # What read queue length does an incoming req see
system.mem_ctrls.rdQLenPdf::7                       0                       # What read queue length does an incoming req see
system.mem_ctrls.rdQLenPdf::8                       0                       # What read queue length does an incoming req see
system.mem_ctrls.rdQLenPdf::9                       0                       # What read queue length does an incoming req see
system.mem_ctrls.rdQLenPdf::10                      0                       # What read queue length does an incoming req see
system.mem_ctrls.rdQLenPdf::11                      0                       # What read queue length does an incoming req see
system.mem_ctrls.rdQLenPdf::12                      0                       # What read queue length does an incoming req see
system.mem_ctrls.rdQLenPdf::13                      0                       # What read queue length does an incoming req see
system.mem_ctrls.rdQLenPdf::14                      0                       # What read queue length does an incoming req see
system.mem_ctrls.rdQLenPdf::15                      0                       # What read queue length does an incoming req see
system.mem_ctrls.rdQLenPdf::16                      0                       # What read queue length does an incoming req see
system.mem_ctrls.rdQLenPdf::17                      0                       # What read queue length does an incoming req see
system.mem_ctrls.rdQLenPdf::18                      0                       # What read queue length does an incoming req see
system.mem_ctrls.rdQLenPdf::19                      0                       # What read queue length does an incoming req see
system.mem_ctrls.rdQLenPdf::20                      0                       # What read queue length does an incoming req see
system.mem_ctrls.rdQLenPdf::21                      0                       # What read queue length does an incoming req see
system.mem_ctrls.rdQLenPdf::22                      0                       # What read queue length does an incoming req see
system.mem_ctrls.rdQLenPdf::23                      0                       # What read queue length does an incoming req see
system.mem_ctrls.rdQLenPdf::24                      0                       # What read queue length does an incoming req see
system.mem_ctrls.rdQLenPdf::25                      0                       # What read queue length does an incoming req see
system.mem_ctrls.rdQLenPdf::26                      0                       # What read queue length does an incoming req see
system.mem_ctrls.rdQLenPdf::27                      0                       # What read queue length does an incoming req see
system.mem_ctrls.rdQLenPdf::28                      0                       # What read queue length does an incoming req see
system.mem_ctrls.rdQLenPdf::29                      0                       # What read queue length does an incoming req see
system.mem_ctrls.rdQLenPdf::30                      0                       # What read queue length does an incoming req see
system.mem_ctrls.rdQLenPdf::31                      0                       # What read queue length does an incoming req see
system.mem_ctrls.wrQLenPdf::0                       0                       # What write queue length does an incoming req see
system.mem_ctrls.wrQLenPdf::1                       0                       # What write queue length does an incoming req see
system.mem_ctrls.wrQLenPdf::2                       0                       # What write queue length does an incoming req see
system.mem_ctrls.wrQLenPdf::3                       0                       # What write queue length does an incoming req see
system.mem_ctrls.wrQLenPdf::4                       0                       # What write queue length does an incoming req see
system.mem_ctrls.wrQLenPdf::5                       0                       # What write queue length does an incoming req see
system.mem_ctrls.wrQLenPdf::6                       0                       # What write queue length does an incoming req see
system.mem_ctrls.wrQLenPdf::7                       0                       # What write queue length does an incoming req see
system.mem_ctrls.wrQLenPdf::8                       0                       # What write queue length does an incoming req see
system.mem_ctrls.wrQLenPdf::9                       0                       # What write queue length does an incoming req see
system.mem_ctrls.wrQLenPdf::10                      0                       # What write queue length does an incoming req see
system.mem_ctrls.wrQLenPdf::11                      0                       # What write queue length does an incoming req see
system.mem_ctrls.wrQLenPdf::12                      0                       # What write queue length does an incoming req see
system.mem_ctrls.wrQLenPdf::13                      0                       # What write queue length does an incoming req see
system.mem_ctrls.wrQLenPdf::14                      0                       # What write queue length does an incoming req see
system.mem_ctrls.wrQLenPdf::15                    713                       # What write queue length does an incoming req see
system.mem_ctrls.wrQLenPdf::16                    774                       # What write queue length does an incoming req see
system.mem_ctrls.wrQLenPdf::17                    933                       # What write queue length does an incoming req see
system.mem_ctrls.wrQLenPdf::18                   1004                       # What write queue length does an incoming req see
system.mem_ctrls.wrQLenPdf::19                    975                       # What write queue length does an incoming req see
system.mem_ctrls.wrQLenPdf::20                   1053                       # What write queue length does an incoming req see
system.mem_ctrls.wrQLenPdf::21                    992                       # What write queue length does an incoming req see
system.mem_ctrls.wrQLenPdf::22                   1078                       # What write queue length does an incoming req see
system.mem_ctrls.wrQLenPdf::23                   1006                       # What write queue length does an incoming req see
system.mem_ctrls.wrQLenPdf::24                   1076                       # What write queue length does an incoming req see
system.mem_ctrls.wrQLenPdf::25                   1003                       # What write queue length does an incoming req see
system.mem_ctrls.wrQLenPdf::26                   1010                       # What write queue length does an incoming req see
system.mem_ctrls.wrQLenPdf::27                    983                       # What write queue length does an incoming req see
system.mem_ctrls.wrQLenPdf::28                   1003                       # What write queue length does an incoming req see
system.mem_ctrls.wrQLenPdf::29                    968                       # What write queue length does an incoming req see
system.mem_ctrls.wrQLenPdf::30                    987                       # What write queue length does an incoming req see
system.mem_ctrls.wrQLenPdf::31                    956                       # What write queue length does an incoming req see
system.mem_ctrls.wrQLenPdf::32                    956                       # What write queue length does an incoming req see
system.mem_ctrls.wrQLenPdf::33                      9                       # What write queue length does an incoming req see
system.mem_ctrls.wrQLenPdf::34                     11                       # What write queue length does an incoming req see
system.mem_ctrls.wrQLenPdf::35                      7                       # What write queue length does an incoming req see
system.mem_ctrls.wrQLenPdf::36                     10                       # What write queue length does an incoming req see
system.mem_ctrls.wrQLenPdf::37                      7                       # What write queue length does an incoming req see
system.mem_ctrls.wrQLenPdf::38                     10                       # What write queue length does an incoming req see
system.mem_ctrls.wrQLenPdf::39                      5                       # What write queue length does an incoming req see
system.mem_ctrls.wrQLenPdf::40                      8                       # What write queue length does an incoming req see
system.mem_ctrls.wrQLenPdf::41                      5                       # What write queue length does an incoming req see
system.mem_ctrls.wrQLenPdf::42                      6                       # What write queue length does an incoming req see
system.mem_ctrls.wrQLenPdf::43                      3                       # What write queue length does an incoming req see
system.mem_ctrls.wrQLenPdf::44                      3                       # What write queue length does an incoming req see
system.mem_ctrls.wrQLenPdf::45                      4                       # What write queue length does an incoming req see
system.mem_ctrls.wrQLenPdf::46                      2                       # What write queue length does an incoming req see
system.mem_ctrls.wrQLenPdf::47                      2                       # What write queue length does an incoming req see
system.mem_ctrls.wrQLenPdf::48                      2                       # What write queue length does an incoming req see
system.mem_ctrls.wrQLenPdf::49                      1                       # What write queue length does an incoming req see
system.mem_ctrls.wrQLenPdf::50                      1                       # What write queue length does an incoming req see
system.mem_ctrls.wrQLenPdf::51                      0                       # What write queue length does an incoming req see
system.mem_ctrls.wrQLenPdf::52                      0                       # What write queue length does an incoming req see
system.mem_ctrls.wrQLenPdf::53                      0                       # What write queue length does an incoming req see
system.mem_ctrls.wrQLenPdf::54                      0                       # What write queue length does an incoming req see
system.mem_ctrls.wrQLenPdf::55                      0                       # What write queue length does an incoming req see
system.mem_ctrls.wrQLenPdf::56                      0                       # What write queue length does an incoming req see
system.mem_ctrls.wrQLenPdf::57                      0                       # What write queue length does an incoming req see
system.mem_ctrls.wrQLenPdf::58                      0                       # What write queue length does an incoming req see
system.mem_ctrls.wrQLenPdf::59                      0                       # What write queue length does an incoming req see
system.mem_ctrls.wrQLenPdf::60                      0                       # What write queue length does an incoming req see
system.mem_ctrls.wrQLenPdf::61                      0                       # What write queue length does an incoming req see
system.mem_ctrls.wrQLenPdf::62                      0                       # What write queue length does an incoming req see
system.mem_ctrls.wrQLenPdf::63                      0                       # What write queue length does an incoming req see
system.mem_ctrls.bytesPerActivate::samples        41291                       # Bytes accessed per row activation
system.mem_ctrls.bytesPerActivate::mean    285.410767                       # Bytes accessed per row activation
system.mem_ctrls.bytesPerActivate::gmean   158.497736                       # Bytes accessed per row activation
system.mem_ctrls.bytesPerActivate::stdev   344.570978                       # Bytes accessed per row activation
system.mem_ctrls.bytesPerActivate::0-127        17005     41.18%     41.18% # Bytes accessed per row activation
system.mem_ctrls.bytesPerActivate::128-255        12523     30.33%     71.51% # Bytes accessed per row activation
system.mem_ctrls.bytesPerActivate::256-383         2325      5.63%     77.14% # Bytes accessed per row activation
system.mem_ctrls.bytesPerActivate::384-511         1234      2.99%     80.13% # Bytes accessed per row activation
system.mem_ctrls.bytesPerActivate::512-639          708      1.71%     81.85% # Bytes accessed per row activation
system.mem_ctrls.bytesPerActivate::640-767          511      1.24%     83.08% # Bytes accessed per row activation
system.mem_ctrls.bytesPerActivate::768-895          389      0.94%     84.03% # Bytes accessed per row activation
system.mem_ctrls.bytesPerActivate::896-1023          367      0.89%     84.91% # Bytes accessed per row activation
system.mem_ctrls.bytesPerActivate::1024-1151         6229     15.09%    100.00% # Bytes accessed per row activation
system.mem_ctrls.bytesPerActivate::total        41291                       # Bytes accessed per row activation
system.mem_ctrls.rdPerTurnAround::samples          936                       # Reads before turning the bus around for writes
system.mem_ctrls.rdPerTurnAround::mean     198.569444                       # Reads before turning the bus around for writes
system.mem_ctrls.rdPerTurnAround::stdev   1259.115707                       # Reads before turning the bus around for writes
system.mem_ctrls.rdPerTurnAround::0-1023          925     98.82%     98.82% # Reads before turning the bus around for writes
system.mem_ctrls.rdPerTurnAround::1024-2047            2      0.21%     99.04% # Reads before turning the bus around for writes
system.mem_ctrls.rdPerTurnAround::2048-3071            1      0.11%     99.15% # Reads before turning the bus around for writes
system.mem_ctrls.rdPerTurnAround::3072-4095            1      0.11%     99.25% # Reads before turning the bus around for writes
system.mem_ctrls.rdPerTurnAround::6144-7167            1      0.11%     99.36% # Reads before turning the bus around for writes
system.mem_ctrls.rdPerTurnAround::8192-9215            2      0.21%     99.57% # Reads before turning the bus around for writes
system.mem_ctrls.rdPerTurnAround::16384-17407            2      0.21%     99.79% # Reads before turning the bus around for writes
system.mem_ctrls.rdPerTurnAround::18432-19455            1      0.11%     99.89% # Reads before turning the bus around for writes
system.mem_ctrls.rdPerTurnAround::19456-20479            1      0.11%    100.00% # Reads before turning the bus around for writes
system.mem_ctrls.rdPerTurnAround::total           936                       # Reads before turning the bus around for writes
system.mem_ctrls.wrPerTurnAround::samples          936                       # Writes before turning the bus around for reads
system.mem_ctrls.wrPerTurnAround::mean      18.759615                       # Writes before turning the bus around for reads
system.mem_ctrls.wrPerTurnAround::gmean     18.415169                       # Writes before turning the bus around for reads
system.mem_ctrls.wrPerTurnAround::stdev      4.418836                       # Writes before turning the bus around for reads
system.mem_ctrls.wrPerTurnAround::16-17           218     23.29%     23.29% # Writes before turning the bus around for reads
system.mem_ctrls.wrPerTurnAround::18-19           624     66.67%     89.96% # Writes before turning the bus around for reads
system.mem_ctrls.wrPerTurnAround::20-21            11      1.18%     91.13% # Writes before turning the bus around for reads
system.mem_ctrls.wrPerTurnAround::22-23            12      1.28%     92.41% # Writes before turning the bus around for reads
system.mem_ctrls.wrPerTurnAround::24-25            12      1.28%     93.70% # Writes before turning the bus around for reads
system.mem_ctrls.wrPerTurnAround::26-27             1      0.11%     93.80% # Writes before turning the bus around for reads
system.mem_ctrls.wrPerTurnAround::28-29            11      1.18%     94.98% # Writes before turning the bus around for reads
system.mem_ctrls.wrPerTurnAround::30-31             6      0.64%     95.62% # Writes before turning the bus around for reads
system.mem_ctrls.wrPerTurnAround::34-35            37      3.95%     99.57% # Writes before turning the bus around for reads
system.mem_ctrls.wrPerTurnAround::40-41             2      0.21%     99.79% # Writes before turning the bus around for reads
system.mem_ctrls.wrPerTurnAround::42-43             1      0.11%     99.89% # Writes before turning the bus around for reads
system.mem_ctrls.wrPerTurnAround::68-69             1      0.11%    100.00% # Writes before turning the bus around for reads
system.mem_ctrls.wrPerTurnAround::total           936                       # Writes before turning the bus around for reads
system.mem_ctrls.totQLat                    916555468                       # Total ticks spent queuing
system.mem_ctrls.totMemAccLat              4039892968                       # Total ticks spent from burst creation until serviced by the DRAM
system.mem_ctrls.totBusLat                  832890000                       # Total ticks spent in databus transfers
system.mem_ctrls.avgQLat                      5502.26                       # Average queueing delay per DRAM burst
system.mem_ctrls.avgBusLat                    5000.00                       # Average bus latency per DRAM burst
system.mem_ctrls.avgMemAccLat                24252.26                       # Average memory access latency per DRAM burst
system.mem_ctrls.avgRdBW                         3.50                       # Average DRAM read bandwidth in MiByte/s
system.mem_ctrls.avgWrBW                         0.37                       # Average achieved write bandwidth in MiByte/s
system.mem_ctrls.avgRdBWSys                      3.50                       # Average system read bandwidth in MiByte/s
system.mem_ctrls.avgWrBWSys                      0.37                       # Average system write bandwidth in MiByte/s
system.mem_ctrls.peakBW                      12800.00                       # Theoretical peak bandwidth in MiByte/s
system.mem_ctrls.busUtil                         0.03                       # Data bus utilization in percentage
system.mem_ctrls.busUtilRead                     0.03                       # Data bus utilization in percentage for reads
system.mem_ctrls.busUtilWrite                    0.00                       # Data bus utilization in percentage for writes
system.mem_ctrls.avgRdQLen                       1.00                       # Average read queue length when enqueuing
system.mem_ctrls.avgWrQLen                      24.90                       # Average write queue length when enqueuing
system.mem_ctrls.readRowHits                   135105                       # Number of row buffer hits during reads
system.mem_ctrls.writeRowHits                    7741                       # Number of row buffer hits during writes
system.mem_ctrls.readRowHitRate                 81.11                       # Row buffer hit rate for reads
system.mem_ctrls.writeRowHitRate                44.07                       # Row buffer hit rate for writes
system.mem_ctrls.avgGap                   16547611.32                       # Average gap between requests
system.mem_ctrls.pageHitRate                    77.57                       # Row buffer hit rate, read and write combined
system.mem_ctrls_0.actEnergy                176669640                       # Energy for activate commands per rank (pJ)
system.mem_ctrls_0.preEnergy                 96397125                       # Energy for precharge commands per rank (pJ)
system.mem_ctrls_0.readEnergy               745360200                       # Energy for read commands per rank (pJ)
system.mem_ctrls_0.writeEnergy               61216560                       # Energy for write commands per rank (pJ)
system.mem_ctrls_0.refreshEnergy         199337720400                       # Energy for refresh commands per rank (pJ)
system.mem_ctrls_0.actBackEnergy          91488499515                       # Energy for active background per rank (pJ)
system.mem_ctrls_0.preBackEnergy         1750909575000                       # Energy for precharge background per rank (pJ)
system.mem_ctrls_0.totalEnergy           2042815438440                       # Total energy per rank (pJ)
system.mem_ctrls_0.averagePower            669.350299                       # Core power per rank (mW)
system.mem_ctrls_0.memoryStateTime::IDLE 2910904208750                       # Time in different power states
system.mem_ctrls_0.memoryStateTime::REF  101775700000                       # Time in different power states
system.mem_ctrls_0.memoryStateTime::PRE_PDN            0                       # Time in different power states
system.mem_ctrls_0.memoryStateTime::ACT   35206001250                       # Time in different power states
system.mem_ctrls_0.memoryStateTime::ACT_PDN            0                       # Time in different power states
system.mem_ctrls_1.actEnergy                167567400                       # Energy for activate commands per rank (pJ)
system.mem_ctrls_1.preEnergy                 91430625                       # Energy for precharge commands per rank (pJ)
system.mem_ctrls_1.readEnergy               705026400                       # Energy for read commands per rank (pJ)
system.mem_ctrls_1.writeEnergy               52565760                       # Energy for write commands per rank (pJ)
system.mem_ctrls_1.refreshEnergy         199337720400                       # Energy for refresh commands per rank (pJ)
system.mem_ctrls_1.actBackEnergy          91243141875                       # Energy for active background per rank (pJ)
system.mem_ctrls_1.preBackEnergy         1751124801000                       # Energy for precharge background per rank (pJ)
system.mem_ctrls_1.totalEnergy           2042722253460                       # Total energy per rank (pJ)
system.mem_ctrls_1.averagePower            669.319766                       # Core power per rank (mW)
system.mem_ctrls_1.memoryStateTime::IDLE 2911538870501                       # Time in different power states
system.mem_ctrls_1.memoryStateTime::REF  101775700000                       # Time in different power states
system.mem_ctrls_1.memoryStateTime::PRE_PDN            0                       # Time in different power states
system.mem_ctrls_1.memoryStateTime::ACT   34574060749                       # Time in different power states
system.mem_ctrls_1.memoryStateTime::ACT_PDN            0                       # Time in different power states
system.cpu_voltage_domain.voltage                   1                       # Voltage in Volts
system.cpu_clk_domain.clock                       500                       # Clock period in ticks
system.cpu0.apic_clk_domain.clock                8000                       # Clock period in ticks
system.cpu0.numCycles                      6095776106                       # number of cpu cycles simulated
system.cpu0.numWorkItemsStarted                     0                       # number of work items this cpu started
system.cpu0.numWorkItemsCompleted                   0                       # number of work items this cpu completed
system.cpu0.kern.inst.arm                           0                       # number of arm instructions executed
system.cpu0.kern.inst.quiesce                       0                       # number of quiesce instructions executed
system.cpu0.committedInsts                 1476304277                       # Number of instructions committed
system.cpu0.committedOps                   2466973088                       # Number of ops (including micro ops) committed
system.cpu0.num_int_alu_accesses           1881851867                       # Number of integer alu accesses
system.cpu0.num_fp_alu_accesses             945947406                       # Number of float alu accesses
system.cpu0.num_func_calls                   34364525                       # number of times a function call or return occured
system.cpu0.num_conditional_control_insts    165761913                       # number of instructions that are conditional controls
system.cpu0.num_int_insts                  1881851867                       # number of integer instructions
system.cpu0.num_fp_insts                    945947406                       # number of float instructions
system.cpu0.num_int_register_reads         3990610518                       # number of times the integer registers were read
system.cpu0.num_int_register_writes        1279539476                       # number of times the integer registers were written
system.cpu0.num_fp_register_reads          1502755341                       # number of times the floating registers were read
system.cpu0.num_fp_register_writes          775539812                       # number of times the floating registers were written
system.cpu0.num_cc_register_reads          1393849785                       # number of times the CC registers were read
system.cpu0.num_cc_register_writes          529021284                       # number of times the CC registers were written
system.cpu0.num_mem_refs                    626085336                       # number of memory refs
system.cpu0.num_load_insts                  465656869                       # Number of load instructions
system.cpu0.num_store_insts                 160428467                       # Number of store instructions
system.cpu0.num_idle_cycles              173799162.001943                       # Number of idle cycles
system.cpu0.num_busy_cycles              5921976943.998056                       # Number of busy cycles
system.cpu0.not_idle_fraction                0.971489                       # Percentage of non-idle cycles
system.cpu0.idle_fraction                    0.028511                       # Percentage of idle cycles
system.cpu0.Branches                        223593941                       # Number of branches fetched
system.cpu0.op_class::No_OpClass              3267914      0.13%      0.13% # Class of executed instruction
system.cpu0.op_class::IntAlu               1423132974     57.69%     57.82% # Class of executed instruction
system.cpu0.op_class::IntMult                 4499391      0.18%     58.00% # Class of executed instruction
system.cpu0.op_class::IntDiv                 18800559      0.76%     58.76% # Class of executed instruction
system.cpu0.op_class::FloatAdd              390176769     15.82%     74.58% # Class of executed instruction
system.cpu0.op_class::FloatCmp                      0      0.00%     74.58% # Class of executed instruction
system.cpu0.op_class::FloatCvt                      0      0.00%     74.58% # Class of executed instruction
system.cpu0.op_class::FloatMult                     0      0.00%     74.58% # Class of executed instruction
system.cpu0.op_class::FloatDiv                1010280      0.04%     74.62% # Class of executed instruction
system.cpu0.op_class::FloatSqrt                     0      0.00%     74.62% # Class of executed instruction
system.cpu0.op_class::SimdAdd                       0      0.00%     74.62% # Class of executed instruction
system.cpu0.op_class::SimdAddAcc                    0      0.00%     74.62% # Class of executed instruction
system.cpu0.op_class::SimdAlu                       0      0.00%     74.62% # Class of executed instruction
system.cpu0.op_class::SimdCmp                       0      0.00%     74.62% # Class of executed instruction
system.cpu0.op_class::SimdCvt                       0      0.00%     74.62% # Class of executed instruction
system.cpu0.op_class::SimdMisc                      0      0.00%     74.62% # Class of executed instruction
system.cpu0.op_class::SimdMult                      0      0.00%     74.62% # Class of executed instruction
system.cpu0.op_class::SimdMultAcc                   0      0.00%     74.62% # Class of executed instruction
system.cpu0.op_class::SimdShift                     0      0.00%     74.62% # Class of executed instruction
system.cpu0.op_class::SimdShiftAcc                  0      0.00%     74.62% # Class of executed instruction
system.cpu0.op_class::SimdSqrt                      0      0.00%     74.62% # Class of executed instruction
system.cpu0.op_class::SimdFloatAdd                  0      0.00%     74.62% # Class of executed instruction
system.cpu0.op_class::SimdFloatAlu                  0      0.00%     74.62% # Class of executed instruction
system.cpu0.op_class::SimdFloatCmp                  0      0.00%     74.62% # Class of executed instruction
system.cpu0.op_class::SimdFloatCvt                  0      0.00%     74.62% # Class of executed instruction
system.cpu0.op_class::SimdFloatDiv                  0      0.00%     74.62% # Class of executed instruction
system.cpu0.op_class::SimdFloatMisc                 0      0.00%     74.62% # Class of executed instruction
system.cpu0.op_class::SimdFloatMult                 0      0.00%     74.62% # Class of executed instruction
system.cpu0.op_class::SimdFloatMultAcc              0      0.00%     74.62% # Class of executed instruction
system.cpu0.op_class::SimdFloatSqrt                 0      0.00%     74.62% # Class of executed instruction
system.cpu0.op_class::MemRead               465656869     18.88%     93.50% # Class of executed instruction
system.cpu0.op_class::MemWrite              160428467      6.50%    100.00% # Class of executed instruction
system.cpu0.op_class::IprAccess                     0      0.00%    100.00% # Class of executed instruction
system.cpu0.op_class::InstPrefetch                  0      0.00%    100.00% # Class of executed instruction
system.cpu0.op_class::total                2466973223                       # Class of executed instruction
system.cpu1.apic_clk_domain.clock                8000                       # Clock period in ticks
system.cpu1.numCycles                      6095778951                       # number of cpu cycles simulated
system.cpu1.numWorkItemsStarted                     0                       # number of work items this cpu started
system.cpu1.numWorkItemsCompleted                   0                       # number of work items this cpu completed
system.cpu1.kern.inst.arm                           0                       # number of arm instructions executed
system.cpu1.kern.inst.quiesce                       0                       # number of quiesce instructions executed
system.cpu1.committedInsts                    4441694                       # Number of instructions committed
system.cpu1.committedOps                      9165164                       # Number of ops (including micro ops) committed
system.cpu1.num_int_alu_accesses              8995416                       # Number of integer alu accesses
system.cpu1.num_fp_alu_accesses                     0                       # Number of float alu accesses
system.cpu1.num_func_calls                     223021                       # number of times a function call or return occured
system.cpu1.num_conditional_control_insts       767368                       # number of instructions that are conditional controls
system.cpu1.num_int_insts                     8995416                       # number of integer instructions
system.cpu1.num_fp_insts                            0                       # number of float instructions
system.cpu1.num_int_register_reads           17730760                       # number of times the integer registers were read
system.cpu1.num_int_register_writes           7416721                       # number of times the integer registers were written
system.cpu1.num_fp_register_reads                   0                       # number of times the floating registers were read
system.cpu1.num_fp_register_writes                  0                       # number of times the floating registers were written
system.cpu1.num_cc_register_reads             5761371                       # number of times the CC registers were read
system.cpu1.num_cc_register_writes            3023974                       # number of times the CC registers were written
system.cpu1.num_mem_refs                      1912425                       # number of memory refs
system.cpu1.num_load_insts                    1225534                       # Number of load instructions
system.cpu1.num_store_insts                    686891                       # Number of store instructions
system.cpu1.num_idle_cycles              6077439047.476472                       # Number of idle cycles
system.cpu1.num_busy_cycles              18339903.523528                       # Number of busy cycles
system.cpu1.not_idle_fraction                0.003009                       # Percentage of non-idle cycles
system.cpu1.idle_fraction                    0.996991                       # Percentage of idle cycles
system.cpu1.Branches                          1061528                       # Number of branches fetched
system.cpu1.op_class::No_OpClass               115145      1.26%      1.26% # Class of executed instruction
system.cpu1.op_class::IntAlu                  7087918     77.34%     78.59% # Class of executed instruction
system.cpu1.op_class::IntMult                   16849      0.18%     78.78% # Class of executed instruction
system.cpu1.op_class::IntDiv                    32830      0.36%     79.13% # Class of executed instruction
system.cpu1.op_class::FloatAdd                      0      0.00%     79.13% # Class of executed instruction
system.cpu1.op_class::FloatCmp                      0      0.00%     79.13% # Class of executed instruction
system.cpu1.op_class::FloatCvt                      0      0.00%     79.13% # Class of executed instruction
system.cpu1.op_class::FloatMult                     0      0.00%     79.13% # Class of executed instruction
system.cpu1.op_class::FloatDiv                      0      0.00%     79.13% # Class of executed instruction
system.cpu1.op_class::FloatSqrt                     0      0.00%     79.13% # Class of executed instruction
system.cpu1.op_class::SimdAdd                       0      0.00%     79.13% # Class of executed instruction
system.cpu1.op_class::SimdAddAcc                    0      0.00%     79.13% # Class of executed instruction
system.cpu1.op_class::SimdAlu                       0      0.00%     79.13% # Class of executed instruction
system.cpu1.op_class::SimdCmp                       0      0.00%     79.13% # Class of executed instruction
system.cpu1.op_class::SimdCvt                       0      0.00%     79.13% # Class of executed instruction
system.cpu1.op_class::SimdMisc                      0      0.00%     79.13% # Class of executed instruction
system.cpu1.op_class::SimdMult                      0      0.00%     79.13% # Class of executed instruction
system.cpu1.op_class::SimdMultAcc                   0      0.00%     79.13% # Class of executed instruction
system.cpu1.op_class::SimdShift                     0      0.00%     79.13% # Class of executed instruction
system.cpu1.op_class::SimdShiftAcc                  0      0.00%     79.13% # Class of executed instruction
system.cpu1.op_class::SimdSqrt                      0      0.00%     79.13% # Class of executed instruction
system.cpu1.op_class::SimdFloatAdd                  0      0.00%     79.13% # Class of executed instruction
system.cpu1.op_class::SimdFloatAlu                  0      0.00%     79.13% # Class of executed instruction
system.cpu1.op_class::SimdFloatCmp                  0      0.00%     79.13% # Class of executed instruction
system.cpu1.op_class::SimdFloatCvt                  0      0.00%     79.13% # Class of executed instruction
system.cpu1.op_class::SimdFloatDiv                  0      0.00%     79.13% # Class of executed instruction
system.cpu1.op_class::SimdFloatMisc                 0      0.00%     79.13% # Class of executed instruction
system.cpu1.op_class::SimdFloatMult                 0      0.00%     79.13% # Class of executed instruction
system.cpu1.op_class::SimdFloatMultAcc              0      0.00%     79.13% # Class of executed instruction
system.cpu1.op_class::SimdFloatSqrt                 0      0.00%     79.13% # Class of executed instruction
system.cpu1.op_class::MemRead                 1225534     13.37%     92.51% # Class of executed instruction
system.cpu1.op_class::MemWrite                 686891      7.49%    100.00% # Class of executed instruction
system.cpu1.op_class::IprAccess                     0      0.00%    100.00% # Class of executed instruction
system.cpu1.op_class::InstPrefetch                  0      0.00%    100.00% # Class of executed instruction
system.cpu1.op_class::total                   9165167                       # Class of executed instruction
system.cpu2.apic_clk_domain.clock                8000                       # Clock period in ticks
system.cpu2.numCycles                      6095788890                       # number of cpu cycles simulated
system.cpu2.numWorkItemsStarted                     0                       # number of work items this cpu started
system.cpu2.numWorkItemsCompleted                   0                       # number of work items this cpu completed
system.cpu2.kern.inst.arm                           0                       # number of arm instructions executed
system.cpu2.kern.inst.quiesce                       0                       # number of quiesce instructions executed
system.cpu2.committedInsts                   48795315                       # Number of instructions committed
system.cpu2.committedOps                     86019659                       # Number of ops (including micro ops) committed
system.cpu2.num_int_alu_accesses             75496838                       # Number of integer alu accesses
system.cpu2.num_fp_alu_accesses              19656007                       # Number of float alu accesses
system.cpu2.num_func_calls                    1296528                       # number of times a function call or return occured
system.cpu2.num_conditional_control_insts      6503389                       # number of instructions that are conditional controls
system.cpu2.num_int_insts                    75496838                       # number of integer instructions
system.cpu2.num_fp_insts                     19656007                       # number of float instructions
system.cpu2.num_int_register_reads          154676679                       # number of times the integer registers were read
system.cpu2.num_int_register_writes          56370133                       # number of times the integer registers were written
system.cpu2.num_fp_register_reads            27213054                       # number of times the floating registers were read
system.cpu2.num_fp_register_writes           14482919                       # number of times the floating registers were written
system.cpu2.num_cc_register_reads            58290891                       # number of times the CC registers were read
system.cpu2.num_cc_register_writes           23688430                       # number of times the CC registers were written
system.cpu2.num_mem_refs                     20410200                       # number of memory refs
system.cpu2.num_load_insts                   13781424                       # Number of load instructions
system.cpu2.num_store_insts                   6628776                       # Number of store instructions
system.cpu2.num_idle_cycles              5911720233.021944                       # Number of idle cycles
system.cpu2.num_busy_cycles              184068656.978056                       # Number of busy cycles
system.cpu2.not_idle_fraction                0.030196                       # Percentage of non-idle cycles
system.cpu2.idle_fraction                    0.969804                       # Percentage of idle cycles
system.cpu2.Branches                          8776360                       # Number of branches fetched
system.cpu2.op_class::No_OpClass               216625      0.25%      0.25% # Class of executed instruction
system.cpu2.op_class::IntAlu                 56330992     65.49%     65.74% # Class of executed instruction
system.cpu2.op_class::IntMult                  243759      0.28%     66.02% # Class of executed instruction
system.cpu2.op_class::IntDiv                   842812      0.98%     67.00% # Class of executed instruction
system.cpu2.op_class::FloatAdd                7917526      9.20%     76.21% # Class of executed instruction
system.cpu2.op_class::FloatCmp                      0      0.00%     76.21% # Class of executed instruction
system.cpu2.op_class::FloatCvt                      0      0.00%     76.21% # Class of executed instruction
system.cpu2.op_class::FloatMult                     0      0.00%     76.21% # Class of executed instruction
system.cpu2.op_class::FloatDiv                  57876      0.07%     76.27% # Class of executed instruction
system.cpu2.op_class::FloatSqrt                     0      0.00%     76.27% # Class of executed instruction
system.cpu2.op_class::SimdAdd                       0      0.00%     76.27% # Class of executed instruction
system.cpu2.op_class::SimdAddAcc                    0      0.00%     76.27% # Class of executed instruction
system.cpu2.op_class::SimdAlu                       0      0.00%     76.27% # Class of executed instruction
system.cpu2.op_class::SimdCmp                       0      0.00%     76.27% # Class of executed instruction
system.cpu2.op_class::SimdCvt                       0      0.00%     76.27% # Class of executed instruction
system.cpu2.op_class::SimdMisc                      0      0.00%     76.27% # Class of executed instruction
system.cpu2.op_class::SimdMult                      0      0.00%     76.27% # Class of executed instruction
system.cpu2.op_class::SimdMultAcc                   0      0.00%     76.27% # Class of executed instruction
system.cpu2.op_class::SimdShift                     0      0.00%     76.27% # Class of executed instruction
system.cpu2.op_class::SimdShiftAcc                  0      0.00%     76.27% # Class of executed instruction
system.cpu2.op_class::SimdSqrt                      0      0.00%     76.27% # Class of executed instruction
system.cpu2.op_class::SimdFloatAdd                  0      0.00%     76.27% # Class of executed instruction
system.cpu2.op_class::SimdFloatAlu                  0      0.00%     76.27% # Class of executed instruction
system.cpu2.op_class::SimdFloatCmp                  0      0.00%     76.27% # Class of executed instruction
system.cpu2.op_class::SimdFloatCvt                  0      0.00%     76.27% # Class of executed instruction
system.cpu2.op_class::SimdFloatDiv                  0      0.00%     76.27% # Class of executed instruction
system.cpu2.op_class::SimdFloatMisc                 0      0.00%     76.27% # Class of executed instruction
system.cpu2.op_class::SimdFloatMult                 0      0.00%     76.27% # Class of executed instruction
system.cpu2.op_class::SimdFloatMultAcc              0      0.00%     76.27% # Class of executed instruction
system.cpu2.op_class::SimdFloatSqrt                 0      0.00%     76.27% # Class of executed instruction
system.cpu2.op_class::MemRead                13781424     16.02%     92.29% # Class of executed instruction
system.cpu2.op_class::MemWrite                6628776      7.71%    100.00% # Class of executed instruction
system.cpu2.op_class::IprAccess                     0      0.00%    100.00% # Class of executed instruction
system.cpu2.op_class::InstPrefetch                  0      0.00%    100.00% # Class of executed instruction
system.cpu2.op_class::total                  86019790                       # Class of executed instruction
system.cpu3.apic_clk_domain.clock                8000                       # Clock period in ticks
system.cpu3.numCycles                      6095816532                       # number of cpu cycles simulated
system.cpu3.numWorkItemsStarted                     0                       # number of work items this cpu started
system.cpu3.numWorkItemsCompleted                   0                       # number of work items this cpu completed
system.cpu3.kern.inst.arm                           0                       # number of arm instructions executed
system.cpu3.kern.inst.quiesce                       0                       # number of quiesce instructions executed
system.cpu3.committedInsts                    2796953                       # Number of instructions committed
system.cpu3.committedOps                      5928557                       # Number of ops (including micro ops) committed
system.cpu3.num_int_alu_accesses              5812544                       # Number of integer alu accesses
system.cpu3.num_fp_alu_accesses                    50                       # Number of float alu accesses
system.cpu3.num_func_calls                     152133                       # number of times a function call or return occured
system.cpu3.num_conditional_control_insts       493066                       # number of instructions that are conditional controls
system.cpu3.num_int_insts                     5812544                       # number of integer instructions
system.cpu3.num_fp_insts                           50                       # number of float instructions
system.cpu3.num_int_register_reads           11471810                       # number of times the integer registers were read
system.cpu3.num_int_register_writes           4787440                       # number of times the integer registers were written
system.cpu3.num_fp_register_reads                  78                       # number of times the floating registers were read
system.cpu3.num_fp_register_writes                 38                       # number of times the floating registers were written
system.cpu3.num_cc_register_reads             3725332                       # number of times the CC registers were read
system.cpu3.num_cc_register_writes            1872051                       # number of times the CC registers were written
system.cpu3.num_mem_refs                      1287777                       # number of memory refs
system.cpu3.num_load_insts                     803447                       # Number of load instructions
system.cpu3.num_store_insts                    484330                       # Number of store instructions
system.cpu3.num_idle_cycles              6084286178.585453                       # Number of idle cycles
system.cpu3.num_busy_cycles              11530353.414547                       # Number of busy cycles
system.cpu3.not_idle_fraction                0.001892                       # Percentage of non-idle cycles
system.cpu3.idle_fraction                    0.998108                       # Percentage of idle cycles
system.cpu3.Branches                           693391                       # Number of branches fetched
system.cpu3.op_class::No_OpClass                93921      1.58%      1.58% # Class of executed instruction
system.cpu3.op_class::IntAlu                  4503005     75.95%     77.54% # Class of executed instruction
system.cpu3.op_class::IntMult                   10491      0.18%     77.72% # Class of executed instruction
system.cpu3.op_class::IntDiv                    33354      0.56%     78.28% # Class of executed instruction
system.cpu3.op_class::FloatAdd                     32      0.00%     78.28% # Class of executed instruction
system.cpu3.op_class::FloatCmp                      0      0.00%     78.28% # Class of executed instruction
system.cpu3.op_class::FloatCvt                      0      0.00%     78.28% # Class of executed instruction
system.cpu3.op_class::FloatMult                     0      0.00%     78.28% # Class of executed instruction
system.cpu3.op_class::FloatDiv                      0      0.00%     78.28% # Class of executed instruction
system.cpu3.op_class::FloatSqrt                     0      0.00%     78.28% # Class of executed instruction
system.cpu3.op_class::SimdAdd                       0      0.00%     78.28% # Class of executed instruction
system.cpu3.op_class::SimdAddAcc                    0      0.00%     78.28% # Class of executed instruction
system.cpu3.op_class::SimdAlu                       0      0.00%     78.28% # Class of executed instruction
system.cpu3.op_class::SimdCmp                       0      0.00%     78.28% # Class of executed instruction
system.cpu3.op_class::SimdCvt                       0      0.00%     78.28% # Class of executed instruction
system.cpu3.op_class::SimdMisc                      0      0.00%     78.28% # Class of executed instruction
system.cpu3.op_class::SimdMult                      0      0.00%     78.28% # Class of executed instruction
system.cpu3.op_class::SimdMultAcc                   0      0.00%     78.28% # Class of executed instruction
system.cpu3.op_class::SimdShift                     0      0.00%     78.28% # Class of executed instruction
system.cpu3.op_class::SimdShiftAcc                  0      0.00%     78.28% # Class of executed instruction
system.cpu3.op_class::SimdSqrt                      0      0.00%     78.28% # Class of executed instruction
system.cpu3.op_class::SimdFloatAdd                  0      0.00%     78.28% # Class of executed instruction
system.cpu3.op_class::SimdFloatAlu                  0      0.00%     78.28% # Class of executed instruction
system.cpu3.op_class::SimdFloatCmp                  0      0.00%     78.28% # Class of executed instruction
system.cpu3.op_class::SimdFloatCvt                  0      0.00%     78.28% # Class of executed instruction
system.cpu3.op_class::SimdFloatDiv                  0      0.00%     78.28% # Class of executed instruction
system.cpu3.op_class::SimdFloatMisc                 0      0.00%     78.28% # Class of executed instruction
system.cpu3.op_class::SimdFloatMult                 0      0.00%     78.28% # Class of executed instruction
system.cpu3.op_class::SimdFloatMultAcc              0      0.00%     78.28% # Class of executed instruction
system.cpu3.op_class::SimdFloatSqrt                 0      0.00%     78.28% # Class of executed instruction
system.cpu3.op_class::MemRead                  803447     13.55%     91.83% # Class of executed instruction
system.cpu3.op_class::MemWrite                 484330      8.17%    100.00% # Class of executed instruction
system.cpu3.op_class::IprAccess                     0      0.00%    100.00% # Class of executed instruction
system.cpu3.op_class::InstPrefetch                  0      0.00%    100.00% # Class of executed instruction
system.cpu3.op_class::total                   5928580                       # Class of executed instruction
system.iobus.trans_dist::ReadReq                  863                       # Transaction distribution
system.iobus.trans_dist::ReadResp                 863                       # Transaction distribution
system.iobus.trans_dist::WriteReq                4676                       # Transaction distribution
system.iobus.trans_dist::WriteResp               4676                       # Transaction distribution
system.iobus.trans_dist::MessageReq               111                       # Transaction distribution
system.iobus.trans_dist::MessageResp              111                       # Transaction distribution
system.iobus.pkt_count_system.pc.south_bridge.io_apic.int_master::system.ruby.l1_cntrl0.sequencer.pio-slave-port           50                       # Packet count per connected master and slave (bytes)
system.iobus.pkt_count_system.pc.south_bridge.io_apic.int_master::system.ruby.l1_cntrl1.sequencer.pio-slave-port           50                       # Packet count per connected master and slave (bytes)
system.iobus.pkt_count_system.pc.south_bridge.io_apic.int_master::system.ruby.l1_cntrl2.sequencer.pio-slave-port           50                       # Packet count per connected master and slave (bytes)
system.iobus.pkt_count_system.pc.south_bridge.io_apic.int_master::system.ruby.l1_cntrl3.sequencer.pio-slave-port           52                       # Packet count per connected master and slave (bytes)
system.iobus.pkt_count_system.pc.south_bridge.io_apic.int_master::total          202                       # Packet count per connected master and slave (bytes)
system.iobus.pkt_count_system.ruby.l1_cntrl0.sequencer.mem-master-port::system.pc.south_bridge.ide.pio          980                       # Packet count per connected master and slave (bytes)
system.iobus.pkt_count_system.ruby.l1_cntrl0.sequencer.mem-master-port::system.ruby.l1_cntrl0.sequencer.pio-slave-port         1606                       # Packet count per connected master and slave (bytes)
system.iobus.pkt_count_system.ruby.l1_cntrl0.sequencer.mem-master-port::system.ruby.l1_cntrl1.sequencer.pio-slave-port            2                       # Packet count per connected master and slave (bytes)
system.iobus.pkt_count_system.ruby.l1_cntrl0.sequencer.mem-master-port::system.ruby.l1_cntrl2.sequencer.pio-slave-port            4                       # Packet count per connected master and slave (bytes)
system.iobus.pkt_count_system.ruby.l1_cntrl0.sequencer.mem-master-port::system.ruby.l1_cntrl3.sequencer.pio-slave-port            6                       # Packet count per connected master and slave (bytes)
system.iobus.pkt_count_system.ruby.l1_cntrl0.sequencer.mem-master-port::total         2598                       # Packet count per connected master and slave (bytes)
system.iobus.pkt_count_system.ruby.l1_cntrl1.sequencer.mem-master-port::system.pc.south_bridge.ide.pio         1308                       # Packet count per connected master and slave (bytes)
system.iobus.pkt_count_system.ruby.l1_cntrl1.sequencer.mem-master-port::system.pc.south_bridge.io_apic.pio            6                       # Packet count per connected master and slave (bytes)
system.iobus.pkt_count_system.ruby.l1_cntrl1.sequencer.mem-master-port::system.pc.com_1.pio          174                       # Packet count per connected master and slave (bytes)
system.iobus.pkt_count_system.ruby.l1_cntrl1.sequencer.mem-master-port::system.ruby.l1_cntrl1.sequencer.pio-slave-port         1584                       # Packet count per connected master and slave (bytes)
system.iobus.pkt_count_system.ruby.l1_cntrl1.sequencer.mem-master-port::system.ruby.l1_cntrl2.sequencer.pio-slave-port            2                       # Packet count per connected master and slave (bytes)
system.iobus.pkt_count_system.ruby.l1_cntrl1.sequencer.mem-master-port::total         3074                       # Packet count per connected master and slave (bytes)
system.iobus.pkt_count_system.ruby.l1_cntrl2.sequencer.mem-master-port::system.pc.south_bridge.ide.pio         1138                       # Packet count per connected master and slave (bytes)
system.iobus.pkt_count_system.ruby.l1_cntrl2.sequencer.mem-master-port::system.pc.south_bridge.io_apic.pio            8                       # Packet count per connected master and slave (bytes)
system.iobus.pkt_count_system.ruby.l1_cntrl2.sequencer.mem-master-port::system.ruby.l1_cntrl1.sequencer.pio-slave-port            2                       # Packet count per connected master and slave (bytes)
system.iobus.pkt_count_system.ruby.l1_cntrl2.sequencer.mem-master-port::system.ruby.l1_cntrl2.sequencer.pio-slave-port         1592                       # Packet count per connected master and slave (bytes)
system.iobus.pkt_count_system.ruby.l1_cntrl2.sequencer.mem-master-port::system.ruby.l1_cntrl3.sequencer.pio-slave-port            2                       # Packet count per connected master and slave (bytes)
system.iobus.pkt_count_system.ruby.l1_cntrl2.sequencer.mem-master-port::total         2742                       # Packet count per connected master and slave (bytes)
system.iobus.pkt_count_system.ruby.l1_cntrl3.sequencer.mem-master-port::system.pc.south_bridge.ide.pio         1082                       # Packet count per connected master and slave (bytes)
system.iobus.pkt_count_system.ruby.l1_cntrl3.sequencer.mem-master-port::system.pc.south_bridge.io_apic.pio            8                       # Packet count per connected master and slave (bytes)
system.iobus.pkt_count_system.ruby.l1_cntrl3.sequencer.mem-master-port::system.pc.com_1.pio            2                       # Packet count per connected master and slave (bytes)
system.iobus.pkt_count_system.ruby.l1_cntrl3.sequencer.mem-master-port::system.ruby.l1_cntrl0.sequencer.pio-slave-port            2                       # Packet count per connected master and slave (bytes)
system.iobus.pkt_count_system.ruby.l1_cntrl3.sequencer.mem-master-port::system.ruby.l1_cntrl3.sequencer.pio-slave-port         1590                       # Packet count per connected master and slave (bytes)
system.iobus.pkt_count_system.ruby.l1_cntrl3.sequencer.mem-master-port::total         2684                       # Packet count per connected master and slave (bytes)
system.iobus.pkt_count::total                   11300                       # Packet count per connected master and slave (bytes)
system.iobus.pkt_size_system.pc.south_bridge.io_apic.int_master::system.ruby.l1_cntrl0.sequencer.pio-slave-port          100                       # Cumulative packet size per connected master and slave (bytes)
system.iobus.pkt_size_system.pc.south_bridge.io_apic.int_master::system.ruby.l1_cntrl1.sequencer.pio-slave-port          100                       # Cumulative packet size per connected master and slave (bytes)
system.iobus.pkt_size_system.pc.south_bridge.io_apic.int_master::system.ruby.l1_cntrl2.sequencer.pio-slave-port          100                       # Cumulative packet size per connected master and slave (bytes)
system.iobus.pkt_size_system.pc.south_bridge.io_apic.int_master::system.ruby.l1_cntrl3.sequencer.pio-slave-port          104                       # Cumulative packet size per connected master and slave (bytes)
system.iobus.pkt_size_system.pc.south_bridge.io_apic.int_master::total          404                       # Cumulative packet size per connected master and slave (bytes)
system.iobus.pkt_size_system.ruby.l1_cntrl0.sequencer.mem-master-port::system.pc.south_bridge.ide.pio          550                       # Cumulative packet size per connected master and slave (bytes)
system.iobus.pkt_size_system.ruby.l1_cntrl0.sequencer.mem-master-port::system.ruby.l1_cntrl0.sequencer.pio-slave-port         3212                       # Cumulative packet size per connected master and slave (bytes)
system.iobus.pkt_size_system.ruby.l1_cntrl0.sequencer.mem-master-port::system.ruby.l1_cntrl1.sequencer.pio-slave-port            4                       # Cumulative packet size per connected master and slave (bytes)
system.iobus.pkt_size_system.ruby.l1_cntrl0.sequencer.mem-master-port::system.ruby.l1_cntrl2.sequencer.pio-slave-port            8                       # Cumulative packet size per connected master and slave (bytes)
system.iobus.pkt_size_system.ruby.l1_cntrl0.sequencer.mem-master-port::system.ruby.l1_cntrl3.sequencer.pio-slave-port           12                       # Cumulative packet size per connected master and slave (bytes)
system.iobus.pkt_size_system.ruby.l1_cntrl0.sequencer.mem-master-port::total         3786                       # Cumulative packet size per connected master and slave (bytes)
system.iobus.pkt_size_system.ruby.l1_cntrl1.sequencer.mem-master-port::system.pc.south_bridge.ide.pio          744                       # Cumulative packet size per connected master and slave (bytes)
system.iobus.pkt_size_system.ruby.l1_cntrl1.sequencer.mem-master-port::system.pc.south_bridge.io_apic.pio           12                       # Cumulative packet size per connected master and slave (bytes)
system.iobus.pkt_size_system.ruby.l1_cntrl1.sequencer.mem-master-port::system.pc.com_1.pio           87                       # Cumulative packet size per connected master and slave (bytes)
system.iobus.pkt_size_system.ruby.l1_cntrl1.sequencer.mem-master-port::system.ruby.l1_cntrl1.sequencer.pio-slave-port         3168                       # Cumulative packet size per connected master and slave (bytes)
system.iobus.pkt_size_system.ruby.l1_cntrl1.sequencer.mem-master-port::system.ruby.l1_cntrl2.sequencer.pio-slave-port            4                       # Cumulative packet size per connected master and slave (bytes)
system.iobus.pkt_size_system.ruby.l1_cntrl1.sequencer.mem-master-port::total         4015                       # Cumulative packet size per connected master and slave (bytes)
system.iobus.pkt_size_system.ruby.l1_cntrl2.sequencer.mem-master-port::system.pc.south_bridge.ide.pio          644                       # Cumulative packet size per connected master and slave (bytes)
system.iobus.pkt_size_system.ruby.l1_cntrl2.sequencer.mem-master-port::system.pc.south_bridge.io_apic.pio           16                       # Cumulative packet size per connected master and slave (bytes)
system.iobus.pkt_size_system.ruby.l1_cntrl2.sequencer.mem-master-port::system.ruby.l1_cntrl1.sequencer.pio-slave-port            4                       # Cumulative packet size per connected master and slave (bytes)
system.iobus.pkt_size_system.ruby.l1_cntrl2.sequencer.mem-master-port::system.ruby.l1_cntrl2.sequencer.pio-slave-port         3184                       # Cumulative packet size per connected master and slave (bytes)
system.iobus.pkt_size_system.ruby.l1_cntrl2.sequencer.mem-master-port::system.ruby.l1_cntrl3.sequencer.pio-slave-port            4                       # Cumulative packet size per connected master and slave (bytes)
system.iobus.pkt_size_system.ruby.l1_cntrl2.sequencer.mem-master-port::total         3852                       # Cumulative packet size per connected master and slave (bytes)
system.iobus.pkt_size_system.ruby.l1_cntrl3.sequencer.mem-master-port::system.pc.south_bridge.ide.pio          610                       # Cumulative packet size per connected master and slave (bytes)
system.iobus.pkt_size_system.ruby.l1_cntrl3.sequencer.mem-master-port::system.pc.south_bridge.io_apic.pio           16                       # Cumulative packet size per connected master and slave (bytes)
system.iobus.pkt_size_system.ruby.l1_cntrl3.sequencer.mem-master-port::system.pc.com_1.pio            1                       # Cumulative packet size per connected master and slave (bytes)
system.iobus.pkt_size_system.ruby.l1_cntrl3.sequencer.mem-master-port::system.ruby.l1_cntrl0.sequencer.pio-slave-port            4                       # Cumulative packet size per connected master and slave (bytes)
system.iobus.pkt_size_system.ruby.l1_cntrl3.sequencer.mem-master-port::system.ruby.l1_cntrl3.sequencer.pio-slave-port         3180                       # Cumulative packet size per connected master and slave (bytes)
system.iobus.pkt_size_system.ruby.l1_cntrl3.sequencer.mem-master-port::total         3811                       # Cumulative packet size per connected master and slave (bytes)
system.iobus.pkt_size::total                    15868                       # Cumulative packet size per connected master and slave (bytes)
system.iobus.reqLayer2.occupancy              3934000                       # Layer occupancy (ticks)
system.iobus.reqLayer2.utilization                0.0                       # Layer utilization (%)
system.iobus.reqLayer8.occupancy                20497                       # Layer occupancy (ticks)
system.iobus.reqLayer8.utilization                0.0                       # Layer utilization (%)
system.iobus.reqLayer12.occupancy              111500                       # Layer occupancy (ticks)
system.iobus.reqLayer12.utilization               0.0                       # Layer utilization (%)
system.iobus.reqLayer17.occupancy             2249237                       # Layer occupancy (ticks)
system.iobus.reqLayer17.utilization               0.0                       # Layer utilization (%)
system.iobus.reqLayer18.occupancy             2037976                       # Layer occupancy (ticks)
system.iobus.reqLayer18.utilization               0.0                       # Layer utilization (%)
system.iobus.reqLayer19.occupancy             2047466                       # Layer occupancy (ticks)
system.iobus.reqLayer19.utilization               0.0                       # Layer utilization (%)
system.iobus.reqLayer20.occupancy             2051474                       # Layer occupancy (ticks)
system.iobus.reqLayer20.utilization               0.0                       # Layer utilization (%)
system.iobus.respLayer0.occupancy              177902                       # Layer occupancy (ticks)
system.iobus.respLayer0.utilization               0.0                       # Layer utilization (%)
system.iobus.respLayer2.occupancy             1885500                       # Layer occupancy (ticks)
system.iobus.respLayer2.utilization               0.0                       # Layer utilization (%)
system.iobus.respLayer4.occupancy             2216000                       # Layer occupancy (ticks)
system.iobus.respLayer4.utilization               0.0                       # Layer utilization (%)
system.iobus.respLayer6.occupancy             1969000                       # Layer occupancy (ticks)
system.iobus.respLayer6.utilization               0.0                       # Layer utilization (%)
system.iobus.respLayer8.occupancy             1934500                       # Layer occupancy (ticks)
system.iobus.respLayer8.utilization               0.0                       # Layer utilization (%)
system.pc.south_bridge.ide.disks.dma_read_full_pages         1522                       # Number of full page size DMA reads (not PRD).
system.pc.south_bridge.ide.disks.dma_read_bytes      6234112                       # Number of bytes transfered via DMA reads (not PRD).
system.pc.south_bridge.ide.disks.dma_read_txs         1522                       # Number of DMA read transactions (not PRD).
system.pc.south_bridge.ide.disks.dma_write_full_pages           45                       # Number of full page size DMA writes.
system.pc.south_bridge.ide.disks.dma_write_bytes       184320                       # Number of bytes transfered via DMA writes.
system.pc.south_bridge.ide.disks.dma_write_txs           45                       # Number of DMA write transactions.
system.ruby.clk_domain.clock                      500                       # Clock period in ticks
system.ruby.outstanding_req_hist_seqr::bucket_size            1                      
system.ruby.outstanding_req_hist_seqr::max_bucket            9                      
system.ruby.outstanding_req_hist_seqr::samples   2882803608                      
system.ruby.outstanding_req_hist_seqr::mean     1.000000                      
system.ruby.outstanding_req_hist_seqr::gmean     1.000000                      
system.ruby.outstanding_req_hist_seqr::stdev     0.000264                      
system.ruby.outstanding_req_hist_seqr    |           0      0.00%      0.00% |  2882803407    100.00%    100.00% |         201      0.00%    100.00% |           0      0.00%    100.00% |           0      0.00%    100.00% |           0      0.00%    100.00% |           0      0.00%    100.00% |           0      0.00%    100.00% |           0      0.00%    100.00% |           0      0.00%    100.00%
system.ruby.outstanding_req_hist_seqr::total   2882803608                      
system.ruby.latency_hist_seqr::bucket_size          128                      
system.ruby.latency_hist_seqr::max_bucket         1279                      
system.ruby.latency_hist_seqr::samples     2882803608                      
system.ruby.latency_hist_seqr::mean          1.128150                      
system.ruby.latency_hist_seqr::gmean         1.022353                      
system.ruby.latency_hist_seqr::stdev         1.578119                      
system.ruby.latency_hist_seqr            |  2882778797    100.00%    100.00% |       23487      0.00%    100.00% |         363      0.00%    100.00% |         268      0.00%    100.00% |         491      0.00%    100.00% |         200      0.00%    100.00% |           1      0.00%    100.00% |           1      0.00%    100.00% |           0      0.00%    100.00% |           0      0.00%    100.00%
system.ruby.latency_hist_seqr::total       2882803608                      
system.ruby.hit_latency_hist_seqr::bucket_size            1                      
system.ruby.hit_latency_hist_seqr::max_bucket            9                      
system.ruby.hit_latency_hist_seqr::samples   2860424510                      
system.ruby.hit_latency_hist_seqr::mean             1                      
system.ruby.hit_latency_hist_seqr::gmean            1                      
system.ruby.hit_latency_hist_seqr        |           0      0.00%      0.00% |  2860424510    100.00%    100.00% |           0      0.00%    100.00% |           0      0.00%    100.00% |           0      0.00%    100.00% |           0      0.00%    100.00% |           0      0.00%    100.00% |           0      0.00%    100.00% |           0      0.00%    100.00% |           0      0.00%    100.00%
system.ruby.hit_latency_hist_seqr::total   2860424510                      
system.ruby.miss_latency_hist_seqr::bucket_size          128                      
system.ruby.miss_latency_hist_seqr::max_bucket         1279                      
[...]
system.ruby.L1Cache_Controller.M.Load::total      3426092                      
system.ruby.L1Cache_Controller.M.Store   |      285653     91.91%     91.91% |        6478      2.08%     94.00% |       11024      3.55%     97.54% |        7630      2.46%    100.00%
system.ruby.L1Cache_Controller.M.Store::total       310785                      
system.ruby.L1Cache_Controller.M.L1_Replacement |     1228384     97.61%     97.61% |        7342      0.58%     98.19% |       16974      1.35%     99.54% |        5808      0.46%    100.00%
system.ruby.L1Cache_Controller.M.L1_Replacement::total      1258508                      
system.ruby.L1Cache_Controller.M.Fwd_GETX |         294     37.64%     37.64% |         127     16.26%     53.91% |         134     17.16%     71.06% |         226     28.94%    100.00%
system.ruby.L1Cache_Controller.M.Fwd_GETX::total          781                      
system.ruby.L1Cache_Controller.M.Fwd_GETS |         734      4.28%      4.28% |        8956     52.26%     56.54% |        3705     21.62%     78.16% |        3744     21.84%    100.00%
system.ruby.L1Cache_Controller.M.Fwd_GETS::total        17139                      
system.ruby.L1Cache_Controller.M_W.Load  |      666743     92.30%     92.30% |       16315      2.26%     94.56% |       27775      3.85%     98.41% |       11521      1.59%    100.00%
system.ruby.L1Cache_Controller.M_W.Load::total       722354                      
system.ruby.L1Cache_Controller.M_W.Store |      181171     96.55%     96.55% |        2527      1.35%     97.90% |        1998      1.06%     98.96% |        1951      1.04%    100.00%
system.ruby.L1Cache_Controller.M_W.Store::total       187647                      
system.ruby.L1Cache_Controller.M_W.L1_Replacement |           0      0.00%      0.00% |          18     16.22%     16.22% |           0      0.00%     16.22% |          93     83.78%    100.00%
system.ruby.L1Cache_Controller.M_W.L1_Replacement::total          111                      
system.ruby.L1Cache_Controller.M_W.Fwd_GETX |          84     77.06%     77.06% |           4      3.67%     80.73% |          16     14.68%     95.41% |           5      4.59%    100.00%
system.ruby.L1Cache_Controller.M_W.Fwd_GETX::total          109                      
system.ruby.L1Cache_Controller.M_W.Fwd_GETS |         319     50.32%     50.32% |          76     11.99%     62.30% |          67     10.57%     72.87% |         172     27.13%    100.00%
system.ruby.L1Cache_Controller.M_W.Fwd_GETS::total          634                      
system.ruby.L1Cache_Controller.M_W.Use_Timeout |     1514980     95.45%     95.45% |       22986      1.45%     96.90% |       31822      2.00%     98.90% |       17418      1.10%    100.00%
system.ruby.L1Cache_Controller.M_W.Use_Timeout::total      1587206                      
system.ruby.L1Cache_Controller.MM.Load   |   192896223     94.67%     94.67% |     1001716      0.49%     95.16% |     8957055      4.40%     99.56% |      898329      0.44%    100.00%
system.ruby.L1Cache_Controller.MM.Load::total    203753323                      
system.ruby.L1Cache_Controller.MM.Store  |   158460758     94.06%     94.06% |      943145      0.56%     94.62% |     8093530      4.80%     99.42% |      973371      0.58%    100.00%
system.ruby.L1Cache_Controller.MM.Store::total    168470804                      
system.ruby.L1Cache_Controller.MM.L1_Replacement |     1878640     94.72%     94.72% |       27602      1.39%     96.11% |       49983      2.52%     98.63% |       27087      1.37%    100.00%
system.ruby.L1Cache_Controller.MM.L1_Replacement::total      1983312                      
system.ruby.L1Cache_Controller.MM.Fwd_GETX |        1272     20.27%     20.27% |        1274     20.30%     40.57% |        2065     32.90%     73.47% |        1665     26.53%    100.00%
system.ruby.L1Cache_Controller.MM.Fwd_GETX::total         6276                      
system.ruby.L1Cache_Controller.MM.Fwd_GETS |        2783     19.45%     19.45% |        3696     25.84%     45.29% |        4046     28.28%     73.57% |        3781     26.43%    100.00%
system.ruby.L1Cache_Controller.MM.Fwd_GETS::total        14306                      
system.ruby.L1Cache_Controller.MM.Fwd_DMA |          96     16.30%     16.30% |         160     27.16%     43.46% |         184     31.24%     74.70% |         149     25.30%    100.00%
system.ruby.L1Cache_Controller.MM.Fwd_DMA::total          589                      
system.ruby.L1Cache_Controller.MM_W.Load |      331550     95.17%     95.17% |        4906      1.41%     96.58% |        9169      2.63%     99.21% |        2741      0.79%    100.00%
system.ruby.L1Cache_Controller.MM_W.Load::total       348366                      
system.ruby.L1Cache_Controller.MM_W.Store |     2457977     89.76%     89.76% |       75472      2.76%     92.52% |      119020      4.35%     96.86% |       85883      3.14%    100.00%
system.ruby.L1Cache_Controller.MM_W.Store::total      2738352                      
system.ruby.L1Cache_Controller.MM_W.L1_Replacement |           6     30.00%     30.00% |           2     10.00%     40.00% |           3     15.00%     55.00% |           9     45.00%    100.00%
system.ruby.L1Cache_Controller.MM_W.L1_Replacement::total           20                      
system.ruby.L1Cache_Controller.MM_W.Fwd_GETX |          35     77.78%     77.78% |           6     13.33%     91.11% |           4      8.89%    100.00% |           0      0.00%    100.00%
system.ruby.L1Cache_Controller.MM_W.Fwd_GETX::total           45                      
system.ruby.L1Cache_Controller.MM_W.Fwd_GETS |        1196     37.25%     37.25% |         890     27.72%     64.96% |         319      9.93%     74.90% |         806     25.10%    100.00%
system.ruby.L1Cache_Controller.MM_W.Fwd_GETS::total         3211                      
system.ruby.L1Cache_Controller.MM_W.Use_Timeout |     1596944     94.32%     94.32% |       26245      1.55%     95.87% |       44950      2.65%     98.52% |       25023      1.48%    100.00%
system.ruby.L1Cache_Controller.MM_W.Use_Timeout::total      1693162                      
system.ruby.L1Cache_Controller.IM.Ack    |        5057     28.93%     28.93% |        4101     23.46%     52.40% |        4253     24.33%     76.73% |        4067     23.27%    100.00%
system.ruby.L1Cache_Controller.IM.Ack::total        17478                      
system.ruby.L1Cache_Controller.IM.Exclusive_Data |     1405726     95.20%     95.20% |       17215      1.17%     96.36% |       36222      2.45%     98.82% |       17477      1.18%    100.00%
system.ruby.L1Cache_Controller.IM.Exclusive_Data::total      1476640                      
system.ruby.L1Cache_Controller.SM.Inv    |           0      0.00%      0.00% |           1    100.00%    100.00% |           0      0.00%    100.00% |           0      0.00%    100.00%
system.ruby.L1Cache_Controller.SM.Inv::total            1                      
system.ruby.L1Cache_Controller.SM.Ack    |        9504     62.92%     62.92% |        2596     17.19%     80.11% |        1882     12.46%     92.57% |        1122      7.43%    100.00%
system.ruby.L1Cache_Controller.SM.Ack::total        15104                      
system.ruby.L1Cache_Controller.SM.Exclusive_Data |        9925     34.72%     34.72% |        6473     22.64%     57.37% |        6689     23.40%     80.77% |        5498     19.23%    100.00%
system.ruby.L1Cache_Controller.SM.Exclusive_Data::total        28585                      
system.ruby.L1Cache_Controller.OM.Own_GETX |         122     42.07%     42.07% |          30     10.34%     52.41% |          41     14.14%     66.55% |          97     33.45%    100.00%
system.ruby.L1Cache_Controller.OM.Own_GETX::total          290                      
system.ruby.L1Cache_Controller.OM.Ack    |        3303     73.45%     73.45% |         400      8.89%     82.34% |         366      8.14%     90.48% |         428      9.52%    100.00%
system.ruby.L1Cache_Controller.OM.Ack::total         4497                      
system.ruby.L1Cache_Controller.OM.All_acks |     1415773     94.04%     94.04% |       23718      1.58%     95.61% |       42952      2.85%     98.47% |       23072      1.53%    100.00%
system.ruby.L1Cache_Controller.OM.All_acks::total      1505515                      
system.ruby.L1Cache_Controller.IS.Data   |    18907996     97.72%     97.72% |       93485      0.48%     98.20% |      249093      1.29%     99.49% |       98398      0.51%    100.00%
system.ruby.L1Cache_Controller.IS.Data::total     19348972                      
system.ruby.L1Cache_Controller.IS.Exclusive_Data |     1696151     95.57%     95.57% |       25513      1.44%     97.00% |       33820      1.91%     98.91% |       19369      1.09%    100.00%
system.ruby.L1Cache_Controller.IS.Exclusive_Data::total      1774853                      
system.ruby.L1Cache_Controller.SI.Load   |         328     80.99%     80.99% |           1      0.25%     81.23% |           3      0.74%     81.98% |          73     18.02%    100.00%
system.ruby.L1Cache_Controller.SI.Load::total          405                      
system.ruby.L1Cache_Controller.SI.Ifetch |           0      0.00%      0.00% |           1     20.00%     20.00% |           0      0.00%     20.00% |           4     80.00%    100.00%
system.ruby.L1Cache_Controller.SI.Ifetch::total            5                      
system.ruby.L1Cache_Controller.SI.Inv    |           1    100.00%    100.00% |           0      0.00%    100.00% |           0      0.00%    100.00% |           0      0.00%    100.00%
system.ruby.L1Cache_Controller.SI.Inv::total            1                      
system.ruby.L1Cache_Controller.SI.Writeback_Ack |    18860500     98.19%     98.19% |       78069      0.41%     98.60% |      193956      1.01%     99.61% |       75654      0.39%    100.00%
system.ruby.L1Cache_Controller.SI.Writeback_Ack::total     19208179                      
system.ruby.L1Cache_Controller.SI.Writeback_Ack_Data |       37124     37.86%     37.86% |        7877      8.03%     45.89% |       42193     43.03%     88.92% |       10870     11.08%    100.00%
system.ruby.L1Cache_Controller.SI.Writeback_Ack_Data::total        98064                      
system.ruby.L1Cache_Controller.OI.Writeback_Ack_Data |         254     21.29%     21.29% |         268     22.46%     43.76% |         434     36.38%     80.13% |         237     19.87%    100.00%
system.ruby.L1Cache_Controller.OI.Writeback_Ack_Data::total         1193                      
system.ruby.L1Cache_Controller.MI.Load   |          54     60.00%     60.00% |          28     31.11%     91.11% |           0      0.00%     91.11% |           8      8.89%    100.00%
system.ruby.L1Cache_Controller.MI.Load::total           90                      
system.ruby.L1Cache_Controller.MI.Store  |           5    100.00%    100.00% |           0      0.00%    100.00% |           0      0.00%    100.00% |           0      0.00%    100.00%
system.ruby.L1Cache_Controller.MI.Store::total            5                      
system.ruby.L1Cache_Controller.MI.Writeback_Ack_Data |     3107024     95.84%     95.84% |       34944      1.08%     96.92% |       66957      2.07%     98.99% |       32895      1.01%    100.00%
system.ruby.L1Cache_Controller.MI.Writeback_Ack_Data::total      3241820                      
system.ruby.L1Cache_Controller.II.Writeback_Nack |           1    100.00%    100.00% |           0      0.00%    100.00% |           0      0.00%    100.00% |           0      0.00%    100.00%
system.ruby.L1Cache_Controller.II.Writeback_Nack::total            1                      
system.ruby.L2Cache_Controller.L1_GETS       21124584      0.00%      0.00%
system.ruby.L2Cache_Controller.L1_GETX        1505525      0.00%      0.00%
system.ruby.L2Cache_Controller.L1_PUTO           1193      0.00%      0.00%
system.ruby.L2Cache_Controller.L1_PUTX        3241820      0.00%      0.00%
system.ruby.L2Cache_Controller.L1_PUTS_only     18847045      0.00%      0.00%
system.ruby.L2Cache_Controller.L1_PUTS         459216      0.00%      0.00%
system.ruby.L2Cache_Controller.Fwd_DMA           1414      0.00%      0.00%
system.ruby.L2Cache_Controller.All_Acks         47965      0.00%      0.00%
system.ruby.L2Cache_Controller.Data            161540      0.00%      0.00%
system.ruby.L2Cache_Controller.L1_WBCLEANDATA        98064      0.00%      0.00%
system.ruby.L2Cache_Controller.L1_WBDIRTYDATA      3243013      0.00%      0.00%
system.ruby.L2Cache_Controller.Writeback_Ack        37781      0.00%      0.00%
system.ruby.L2Cache_Controller.Unblock       38557151      0.00%      0.00%
system.ruby.L2Cache_Controller.Exclusive_Unblock      3280368      0.00%      0.00%
system.ruby.L2Cache_Controller.DmaAck             589      0.00%      0.00%
system.ruby.L2Cache_Controller.L2_Replacement       125456      0.00%      0.00%
system.ruby.L2Cache_Controller.NP.L1_GETS       113575      0.00%      0.00%
system.ruby.L2Cache_Controller.NP.L1_GETX        26168      0.00%      0.00%
system.ruby.L2Cache_Controller.ILS.L1_GETS         3927      0.00%      0.00%
system.ruby.L2Cache_Controller.ILS.L1_GETX        17838      0.00%      0.00%
system.ruby.L2Cache_Controller.ILS.L1_PUTS_only        94792      0.00%      0.00%
system.ruby.L2Cache_Controller.ILS.L1_PUTS         3272      0.00%      0.00%
system.ruby.L2Cache_Controller.ILX.L1_GETS        31445      0.00%      0.00%
system.ruby.L2Cache_Controller.ILX.L1_GETX         7057      0.00%      0.00%
system.ruby.L2Cache_Controller.ILX.L1_PUTX      3241820      0.00%      0.00%
system.ruby.L2Cache_Controller.ILX.L1_PUTS            1      0.00%      0.00%
system.ruby.L2Cache_Controller.ILX.Fwd_DMA          589      0.00%      0.00%
system.ruby.L2Cache_Controller.ILOX.L1_GETS        16771      0.00%      0.00%
system.ruby.L2Cache_Controller.ILOX.L1_GETX         1624      0.00%      0.00%
system.ruby.L2Cache_Controller.ILOX.L1_PUTO          547      0.00%      0.00%
system.ruby.L2Cache_Controller.ILOSX.L1_GETS        11256      0.00%      0.00%
system.ruby.L2Cache_Controller.ILOSX.L1_GETX        14374      0.00%      0.00%
system.ruby.L2Cache_Controller.ILOSX.L1_PUTO          646      0.00%      0.00%
system.ruby.L2Cache_Controller.ILOSX.L1_PUTS_only        18932      0.00%      0.00%
system.ruby.L2Cache_Controller.ILOSX.L1_PUTS         3452      0.00%      0.00%
system.ruby.L2Cache_Controller.S.L1_GETS     18734064      0.00%      0.00%
system.ruby.L2Cache_Controller.S.L1_GETX         2207      0.00%      0.00%
system.ruby.L2Cache_Controller.S.L2_Replacement        85404      0.00%      0.00%
system.ruby.L2Cache_Controller.OLSX.L1_GETS         7781      0.00%      0.00%
system.ruby.L2Cache_Controller.OLSX.L1_GETX          341      0.00%      0.00%
system.ruby.L2Cache_Controller.OLSX.L1_PUTS_only          309      0.00%      0.00%
system.ruby.L2Cache_Controller.OLSX.L1_PUTS         7639      0.00%      0.00%
system.ruby.L2Cache_Controller.OLSX.L2_Replacement           49      0.00%      0.00%
system.ruby.L2Cache_Controller.SLS.L1_GETS       444459      0.00%      0.00%
system.ruby.L2Cache_Controller.SLS.L1_GETX         1752      0.00%      0.00%
system.ruby.L2Cache_Controller.SLS.L1_PUTS_only     18733006      0.00%      0.00%
system.ruby.L2Cache_Controller.SLS.L1_PUTS       444841      0.00%      0.00%
system.ruby.L2Cache_Controller.SLS.L2_Replacement         2271      0.00%      0.00%
system.ruby.L2Cache_Controller.M.L1_GETS      1760547      0.00%      0.00%
system.ruby.L2Cache_Controller.M.L1_GETX      1434154      0.00%      0.00%
system.ruby.L2Cache_Controller.M.Fwd_DMA          825      0.00%      0.00%
system.ruby.L2Cache_Controller.M.L2_Replacement        37732      0.00%      0.00%
system.ruby.L2Cache_Controller.ILOXW.L1_WBDIRTYDATA          547      0.00%      0.00%
system.ruby.L2Cache_Controller.ILOXW.Unblock        18932      0.00%      0.00%
system.ruby.L2Cache_Controller.ILOSXW.L1_PUTS_only            2      0.00%      0.00%
system.ruby.L2Cache_Controller.ILOSXW.L1_WBDIRTYDATA          646      0.00%      0.00%
system.ruby.L2Cache_Controller.ILOSXW.Unblock         3452      0.00%      0.00%
system.ruby.L2Cache_Controller.SLSW.L1_GETS            2      0.00%      0.00%
system.ruby.L2Cache_Controller.SLSW.L1_PUTS            7      0.00%      0.00%
system.ruby.L2Cache_Controller.SLSW.Unblock       444841      0.00%      0.00%
system.ruby.L2Cache_Controller.ILSW.L1_WBCLEANDATA         3272      0.00%      0.00%
system.ruby.L2Cache_Controller.IW.L1_GETS            1      0.00%      0.00%
system.ruby.L2Cache_Controller.IW.L1_WBCLEANDATA        94792      0.00%      0.00%
system.ruby.L2Cache_Controller.SW.L1_GETS           28      0.00%      0.00%
system.ruby.L2Cache_Controller.SW.Unblock     18733006      0.00%      0.00%
system.ruby.L2Cache_Controller.OXW.Unblock          309      0.00%      0.00%
system.ruby.L2Cache_Controller.OLSXW.Unblock         7639      0.00%      0.00%
system.ruby.L2Cache_Controller.ILXW.L1_GETS            3      0.00%      0.00%
system.ruby.L2Cache_Controller.ILXW.L1_WBDIRTYDATA      3241820      0.00%      0.00%
system.ruby.L2Cache_Controller.IFLS.L1_GETS            6      0.00%      0.00%
system.ruby.L2Cache_Controller.IFLS.L1_PUTS_only            1      0.00%      0.00%
system.ruby.L2Cache_Controller.IFLS.Unblock         3927      0.00%      0.00%
system.ruby.L2Cache_Controller.IFLOX.Unblock        16771      0.00%      0.00%
system.ruby.L2Cache_Controller.IFLOX.Exclusive_Unblock          341      0.00%      0.00%
system.ruby.L2Cache_Controller.IFLOXX.L1_GETS          253      0.00%      0.00%
system.ruby.L2Cache_Controller.IFLOXX.L1_GETX            7      0.00%      0.00%
system.ruby.L2Cache_Controller.IFLOXX.Unblock        17139      0.00%      0.00%
system.ruby.L2Cache_Controller.IFLOXX.Exclusive_Unblock        22987      0.00%      0.00%
system.ruby.L2Cache_Controller.IFLOSX.L1_PUTS_only            3      0.00%      0.00%
system.ruby.L2Cache_Controller.IFLOSX.Unblock        11256      0.00%      0.00%
system.ruby.L2Cache_Controller.IFLXO.L1_GETS          189      0.00%      0.00%
system.ruby.L2Cache_Controller.IFLXO.L1_GETX            3      0.00%      0.00%
system.ruby.L2Cache_Controller.IFLXO.L1_PUTS            3      0.00%      0.00%
system.ruby.L2Cache_Controller.IFLXO.Exclusive_Unblock        14374      0.00%      0.00%
system.ruby.L2Cache_Controller.IGS.L1_GETS          269      0.00%      0.00%
system.ruby.L2Cache_Controller.IGS.Data        113575      0.00%      0.00%
system.ruby.L2Cache_Controller.IGS.Unblock       113575      0.00%      0.00%
system.ruby.L2Cache_Controller.IGM.Data         28375      0.00%      0.00%
system.ruby.L2Cache_Controller.IGMLS.Data        19590      0.00%      0.00%
system.ruby.L2Cache_Controller.IGMO.All_Acks        47965      0.00%      0.00%
system.ruby.L2Cache_Controller.IGMO.Exclusive_Unblock        47965      0.00%      0.00%
system.ruby.L2Cache_Controller.MM.Exclusive_Unblock      1434154      0.00%      0.00%
system.ruby.L2Cache_Controller.SS.L1_GETS            7      0.00%      0.00%
system.ruby.L2Cache_Controller.SS.Unblock     18734064      0.00%      0.00%
system.ruby.L2Cache_Controller.OO.Exclusive_Unblock      1760547      0.00%      0.00%
system.ruby.L2Cache_Controller.OLSXS.L1_GETS            1      0.00%      0.00%
system.ruby.L2Cache_Controller.OLSXS.Unblock         7781      0.00%      0.00%
system.ruby.L2Cache_Controller.SLSS.L1_PUTS            1      0.00%      0.00%
system.ruby.L2Cache_Controller.SLSS.Unblock       444459      0.00%      0.00%
system.ruby.L2Cache_Controller.MI.Writeback_Ack        37732      0.00%      0.00%
system.ruby.L2Cache_Controller.OLSI.Writeback_Ack           49      0.00%      0.00%
system.ruby.L2Cache_Controller.ILXD.DmaAck          589      0.00%      0.00%

---------- End Simulation Statistics   ----------
