
---------- Begin Simulation Statistics ----------
sim_seconds                                  2.960724                       # Number of seconds simulated
sim_ticks                                2960723902000                       # Number of ticks simulated
final_tick                               58543197008501                       # Number of ticks from beginning of simulation (restored from checkpoints and never reset)
sim_freq                                 1000000000000                       # Frequency of simulated ticks
host_inst_rate                                 124999                       # Simulator instruction rate (inst/s)
host_op_rate                                   209502                       # Simulator op (including micro ops) rate (op/s)
host_tick_rate                              241295856                       # Simulator tick rate (ticks/s)
host_mem_usage                                1943636                       # Number of bytes of host memory used
host_seconds                                 12270.10                       # Real time elapsed on the host
sim_insts                                  1533749323                       # Number of instructions simulated
sim_ops                                    2570610720                       # Number of ops (including micro ops) simulated
system.voltage_domain.voltage                       1                       # Voltage in Volts
system.clk_domain.clock                          1000                       # Clock period in ticks
system.mem_ctrls.bytes_read::ruby.dir_cntrl0     10868544                       # Number of bytes read from this memory
system.mem_ctrls.bytes_read::total           10868544                       # Number of bytes read from this memory
system.mem_ctrls.bytes_written::ruby.dir_cntrl0      1109440                       # Number of bytes written to this memory
system.mem_ctrls.bytes_written::total         1109440                       # Number of bytes written to this memory
system.mem_ctrls.num_reads::ruby.dir_cntrl0       169821                       # Number of read requests responded to by this memory
system.mem_ctrls.num_reads::total              169821                       # Number of read requests responded to by this memory
system.mem_ctrls.num_writes::ruby.dir_cntrl0        17335                       # Number of write requests responded to by this memory
system.mem_ctrls.num_writes::total              17335                       # Number of write requests responded to by this memory
system.mem_ctrls.bw_read::ruby.dir_cntrl0      3670908                       # Total read bandwidth from this memory (bytes/s)
system.mem_ctrls.bw_read::total               3670908                       # Total read bandwidth from this memory (bytes/s)
system.mem_ctrls.bw_write::ruby.dir_cntrl0       374719                       # Write bandwidth from this memory (bytes/s)
system.mem_ctrls.bw_write::total               374719                       # Write bandwidth from this memory (bytes/s)
system.mem_ctrls.bw_total::ruby.dir_cntrl0      4045627                       # Total bandwidth to/from this memory (bytes/s)
system.mem_ctrls.bw_total::total              4045627                       # Total bandwidth to/from this memory (bytes/s)
system.mem_ctrls.readReqs                      169821                       # Number of read requests accepted
system.mem_ctrls.writeReqs                      17335                       # Number of write requests accepted
system.mem_ctrls.readBursts                    169821                       # Number of DRAM read bursts, including those serviced by the write queue
system.mem_ctrls.writeBursts                    17335                       # Number of DRAM write bursts, including those merged in the write queue
system.mem_ctrls.bytesReadDRAM               10865856                       # Total number of bytes read from DRAM
system.mem_ctrls.bytesReadWrQ                    2688                       # Total number of bytes read from write queue
system.mem_ctrls.bytesWritten                 1110080                       # Total number of bytes written to DRAM
system.mem_ctrls.bytesReadSys                10868544                       # Total read bytes from the system interface side
system.mem_ctrls.bytesWrittenSys              1109440                       # Total written bytes from the system interface side
system.mem_ctrls.servicedByWrQ                     42                       # Number of DRAM read bursts serviced by the write queue
system.mem_ctrls.mergedWrBursts                     0                       # Number of DRAM write bursts merged with an existing one
system.mem_ctrls.neitherReadNorWriteReqs            0                       # Number of requests that are neither read nor write
system.mem_ctrls.perBankRdBursts::0             12150                       # Per bank write bursts
system.mem_ctrls.perBankRdBursts::1             10565                       # Per bank write bursts
system.mem_ctrls.perBankRdBursts::2             10551                       # Per bank write bursts
system.mem_ctrls.perBankRdBursts::3             10263                       # Per bank write bursts
system.mem_ctrls.perBankRdBursts::4             10997                       # Per bank write bursts
system.mem_ctrls.perBankRdBursts::5             11248                       # Per bank write bursts
system.mem_ctrls.perBankRdBursts::6             10229                       # Per bank write bursts
system.mem_ctrls.perBankRdBursts::7              9731                       # Per bank write bursts
system.mem_ctrls.perBankRdBursts::8              9712                       # Per bank write bursts
system.mem_ctrls.perBankRdBursts::9             10113                       # Per bank write bursts
system.mem_ctrls.perBankRdBursts::10            10484                       # Per bank write bursts
system.mem_ctrls.perBankRdBursts::11            11049                       # Per bank write bursts
system.mem_ctrls.perBankRdBursts::12            10910                       # Per bank write bursts
system.mem_ctrls.perBankRdBursts::13            10104                       # Per bank write bursts
system.mem_ctrls.perBankRdBursts::14            11068                       # Per bank write bursts
system.mem_ctrls.perBankRdBursts::15            10605                       # Per bank write bursts
system.mem_ctrls.perBankWrBursts::0              1454                       # Per bank write bursts
system.mem_ctrls.perBankWrBursts::1              1535                       # Per bank write bursts
system.mem_ctrls.perBankWrBursts::2              1104                       # Per bank write bursts
system.mem_ctrls.perBankWrBursts::3               978                       # Per bank write bursts
system.mem_ctrls.perBankWrBursts::4              1244                       # Per bank write bursts
system.mem_ctrls.perBankWrBursts::5              1281                       # Per bank write bursts
system.mem_ctrls.perBankWrBursts::6              1129                       # Per bank write bursts
system.mem_ctrls.perBankWrBursts::7               965                       # Per bank write bursts
system.mem_ctrls.perBankWrBursts::8               895                       # Per bank write bursts
system.mem_ctrls.perBankWrBursts::9              1092                       # Per bank write bursts
system.mem_ctrls.perBankWrBursts::10              806                       # Per bank write bursts
system.mem_ctrls.perBankWrBursts::11              977                       # Per bank write bursts
system.mem_ctrls.perBankWrBursts::12             1042                       # Per bank write bursts
system.mem_ctrls.perBankWrBursts::13              910                       # Per bank write bursts
system.mem_ctrls.perBankWrBursts::14             1077                       # Per bank write bursts
system.mem_ctrls.perBankWrBursts::15              856                       # Per bank write bursts
system.mem_ctrls.numRdRetry                         0                       # Number of times read queue was full causing retry
system.mem_ctrls.numWrRetry                         0                       # Number of times write queue was full causing retry
system.mem_ctrls.totGap                  2960723831000                       # Total gap between requests
system.mem_ctrls.readPktSize::0                     0                       # Read request sizes (log2)
system.mem_ctrls.readPktSize::1                     0                       # Read request sizes (log2)
system.mem_ctrls.readPktSize::2                     0                       # Read request sizes (log2)
system.mem_ctrls.readPktSize::3                     0                       # Read request sizes (log2)
system.mem_ctrls.readPktSize::4                     0                       # Read request sizes (log2)
system.mem_ctrls.readPktSize::5                     0                       # Read request sizes (log2)
system.mem_ctrls.readPktSize::6                169821                       # Read request sizes (log2)
system.mem_ctrls.writePktSize::0                    0                       # Write request sizes (log2)
system.mem_ctrls.writePktSize::1                    0                       # Write request sizes (log2)
system.mem_ctrls.writePktSize::2                    0                       # Write request sizes (log2)
system.mem_ctrls.writePktSize::3                    0                       # Write request sizes (log2)
system.mem_ctrls.writePktSize::4                    0                       # Write request sizes (log2)
system.mem_ctrls.writePktSize::5                    0                       # Write request sizes (log2)
system.mem_ctrls.writePktSize::6                17335                       # Write request sizes (log2)
system.mem_ctrls.rdQLenPdf::0                  169092                       # What read queue length does an incoming req see
system.mem_ctrls.rdQLenPdf::1                     680                       # What read queue length does an incoming req see
system.mem_ctrls.rdQLenPdf::2                       7                       # What read queue length does an incoming req see
system.mem_ctrls.rdQLenPdf::3                       0                       # What read queue length does an incoming req see
system.mem_ctrls.rdQLenPdf::4                       0                       # What read queue length does an incoming req see
system.mem_ctrls.rdQLenPdf::5                       0                       # What read queue length does an incoming req see
system.mem_ctrls.rdQLenPdf::6                       0                       # What read queue length does an incoming req see
system.mem_ctrls.rdQLenPdf::7                       0                       # What read queue length does an incoming req see
system.mem_ctrls.rdQLenPdf::8                       0                       # What read queue length does an incoming req see
system.mem_ctrls.rdQLenPdf::9                       0                       # What read queue length does an incoming req see
system.mem_ctrls.rdQLenPdf::10                      0                       # What read queue length does an incoming req see
system.mem_ctrls.rdQLenPdf::11                      0                       # What read queue length does an incoming req see
system.mem_ctrls.rdQLenPdf::12                      0                       # What read queue length does an incoming req see
system.mem_ctrls.rdQLenPdf::13                      0                       # What read queue length does an incoming req see
system.mem_ctrls.rdQLenPdf::14                      0                       # What read queue length does an incoming req see
system.mem_ctrls.rdQLenPdf::15                      0                       # What read queue length does an incoming req see
system.mem_ctrls.rdQLenPdf::16                      0                       # What read queue length does an incoming req see
system.mem_ctrls.rdQLenPdf::17                      0                       # What read queue length does an incoming req see
system.mem_ctrls.rdQLenPdf::18                      0                       # What read queue length does an incoming req see
system.mem_ctrls.rdQLenPdf::19                      0                       # What read queue length does an incoming req see
system.mem_ctrls.rdQLenPdf::20                      0                       # What read queue length does an incoming req see
system.mem_ctrls.rdQLenPdf::21                      0                       # What read queue length does an incoming req see
system.mem_ctrls.rdQLenPdf::22                      0                       # What read queue length does an incoming req see
system.mem_ctrls.rdQLenPdf::23                      0                       # What read queue length does an incoming req see
system.mem_ctrls.rdQLenPdf::24                      0                       # What read queue length does an incoming req see
system.mem_ctrls.rdQLenPdf::25                      0                       # What read queue length does an incoming req see
system.mem_ctrls.rdQLenPdf::26                      0                       # What read queue length does an incoming req see
system.mem_ctrls.rdQLenPdf::27                      0                       # What read queue length does an incoming req see
system.mem_ctrls.rdQLenPdf::28                      0                       # What read queue length does an incoming req see
system.mem_ctrls.rdQLenPdf::29                      0                       # What read queue length does an incoming req see
system.mem_ctrls.rdQLenPdf::30                      0                       # What read queue length does an incoming req see
system.mem_ctrls.rdQLenPdf::31                      0                       # What read queue length does an incoming req see
system.mem_ctrls.wrQLenPdf::0                       0                       # What write queue length does an incoming req see
system.mem_ctrls.wrQLenPdf::1                       0                       # What write queue length does an incoming req see
system.mem_ctrls.wrQLenPdf::2                       0                       # What write queue length does an incoming req see
system.mem_ctrls.wrQLenPdf::3                       0                       # What write queue length does an incoming req see
system.mem_ctrls.wrQLenPdf::4                       0                       # What write queue length does an incoming req see
system.mem_ctrls.wrQLenPdf::5                       0                       # What write queue length does an incoming req see
system.mem_ctrls.wrQLenPdf::6                       0                       # What write queue length does an incoming req see
system.mem_ctrls.wrQLenPdf::7                       0                       # What write queue length does an incoming req see
system.mem_ctrls.wrQLenPdf::8                       0                       # What write queue length does an incoming req see
system.mem_ctrls.wrQLenPdf::9                       0                       # What write queue length does an incoming req see
system.mem_ctrls.wrQLenPdf::10                      0                       # What write queue length does an incoming req see
system.mem_ctrls.wrQLenPdf::11                      0                       # What write queue length does an incoming req see
system.mem_ctrls.wrQLenPdf::12                      0                       # What write queue length does an incoming req see
system.mem_ctrls.wrQLenPdf::13                      0                       # What write queue length does an incoming req see
system.mem_ctrls.wrQLenPdf::14                      0                       # What write queue length does an incoming req see
system.mem_ctrls.wrQLenPdf::15                    727                       # What write queue length does an incoming req see
system.mem_ctrls.wrQLenPdf::16                    787                       # What write queue length does an incoming req see
system.mem_ctrls.wrQLenPdf::17                    926                       # What write queue length does an incoming req see
system.mem_ctrls.wrQLenPdf::18                    994                       # What write queue length does an incoming req see
system.mem_ctrls.wrQLenPdf::19                    955                       # What write queue length does an incoming req see
system.mem_ctrls.wrQLenPdf::20                   1041                       # What write queue length does an incoming req see
system.mem_ctrls.wrQLenPdf::21                    992                       # What write queue length does an incoming req see
system.mem_ctrls.wrQLenPdf::22                   1047                       # What write queue length does an incoming req see
system.mem_ctrls.wrQLenPdf::23                    983                       # What write queue length does an incoming req see
system.mem_ctrls.wrQLenPdf::24                   1029                       # What write queue length does an incoming req see
system.mem_ctrls.wrQLenPdf::25                    982                       # What write queue length does an incoming req see
system.mem_ctrls.wrQLenPdf::26                   1000                       # What write queue length does an incoming req see
system.mem_ctrls.wrQLenPdf::27                    980                       # What write queue length does an incoming req see
system.mem_ctrls.wrQLenPdf::28                    981                       # What write queue length does an incoming req see
system.mem_ctrls.wrQLenPdf::29                    954                       # What write queue length does an incoming req see
system.mem_ctrls.wrQLenPdf::30                    957                       # What write queue length does an incoming req see
system.mem_ctrls.wrQLenPdf::31                    938                       # What write queue length does an incoming req see
system.mem_ctrls.wrQLenPdf::32                    933                       # What write queue length does an incoming req see
system.mem_ctrls.wrQLenPdf::33                     12                       # What write queue length does an incoming req see
system.mem_ctrls.wrQLenPdf::34                     15                       # What write queue length does an incoming req see
system.mem_ctrls.wrQLenPdf::35                     13                       # What write queue length does an incoming req see
system.mem_ctrls.wrQLenPdf::36                     12                       # What write queue length does an incoming req see
system.mem_ctrls.wrQLenPdf::37                     11                       # What write queue length does an incoming req see
system.mem_ctrls.wrQLenPdf::38                     10                       # What write queue length does an incoming req see
system.mem_ctrls.wrQLenPdf::39                     10                       # What write queue length does an incoming req see
system.mem_ctrls.wrQLenPdf::40                      7                       # What write queue length does an incoming req see
system.mem_ctrls.wrQLenPdf::41                      8                       # What write queue length does an incoming req see
system.mem_ctrls.wrQLenPdf::42                      7                       # What write queue length does an incoming req see
system.mem_ctrls.wrQLenPdf::43                      6                       # What write queue length does an incoming req see
system.mem_ctrls.wrQLenPdf::44                      5                       # What write queue length does an incoming req see
system.mem_ctrls.wrQLenPdf::45                      5                       # What write queue length does an incoming req see
system.mem_ctrls.wrQLenPdf::46                      3                       # What write queue length does an incoming req see
system.mem_ctrls.wrQLenPdf::47                      2                       # What write queue length does an incoming req see
system.mem_ctrls.wrQLenPdf::48                      2                       # What write queue length does an incoming req see
system.mem_ctrls.wrQLenPdf::49                      1                       # What write queue length does an incoming req see
system.mem_ctrls.wrQLenPdf::50                      0                       # What write queue length does an incoming req see
system.mem_ctrls.wrQLenPdf::51                      0                       # What write queue length does an incoming req see
system.mem_ctrls.wrQLenPdf::52                      0                       # What write queue length does an incoming req see
system.mem_ctrls.wrQLenPdf::53                      0                       # What write queue length does an incoming req see
system.mem_ctrls.wrQLenPdf::54                      0                       # What write queue length does an incoming req see
system.mem_ctrls.wrQLenPdf::55                      0                       # What write queue length does an incoming req see
system.mem_ctrls.wrQLenPdf::56                      0                       # What write queue length does an incoming req see
system.mem_ctrls.wrQLenPdf::57                      0                       # What write queue length does an incoming req see
system.mem_ctrls.wrQLenPdf::58                      0                       # What write queue length does an incoming req see
system.mem_ctrls.wrQLenPdf::59                      0                       # What write queue length does an incoming req see
system.mem_ctrls.wrQLenPdf::60                      0                       # What write queue length does an incoming req see
system.mem_ctrls.wrQLenPdf::61                      0                       # What write queue length does an incoming req see
system.mem_ctrls.wrQLenPdf::62                      0                       # What write queue length does an incoming req see
system.mem_ctrls.wrQLenPdf::63                      0                       # What write queue length does an incoming req see
system.mem_ctrls.bytesPerActivate::samples        43338                       # Bytes accessed per row activation
system.mem_ctrls.bytesPerActivate::mean    276.340948                       # Bytes accessed per row activation
system.mem_ctrls.bytesPerActivate::gmean   153.332563                       # Bytes accessed per row activation
system.mem_ctrls.bytesPerActivate::stdev   339.612405                       # Bytes accessed per row activation
system.mem_ctrls.bytesPerActivate::0-127        18601     42.92%     42.92% # Bytes accessed per row activation
system.mem_ctrls.bytesPerActivate::128-255        12958     29.90%     72.82% # Bytes accessed per row activation
system.mem_ctrls.bytesPerActivate::256-383         2331      5.38%     78.20% # Bytes accessed per row activation
system.mem_ctrls.bytesPerActivate::384-511         1174      2.71%     80.91% # Bytes accessed per row activation
system.mem_ctrls.bytesPerActivate::512-639          786      1.81%     82.72% # Bytes accessed per row activation
system.mem_ctrls.bytesPerActivate::640-767          491      1.13%     83.85% # Bytes accessed per row activation
system.mem_ctrls.bytesPerActivate::768-895          387      0.89%     84.75% # Bytes accessed per row activation
system.mem_ctrls.bytesPerActivate::896-1023          332      0.77%     85.51% # Bytes accessed per row activation
system.mem_ctrls.bytesPerActivate::1024-1151         6278     14.49%    100.00% # Bytes accessed per row activation
system.mem_ctrls.bytesPerActivate::total        43338                       # Bytes accessed per row activation
system.mem_ctrls.rdPerTurnAround::samples          923                       # Reads before turning the bus around for writes
system.mem_ctrls.rdPerTurnAround::mean     204.565547                       # Reads before turning the bus around for writes
system.mem_ctrls.rdPerTurnAround::stdev   1128.721500                       # Reads before turning the bus around for writes
system.mem_ctrls.rdPerTurnAround::0-1023          906     98.16%     98.16% # Reads before turning the bus around for writes
system.mem_ctrls.rdPerTurnAround::1024-2047            4      0.43%     98.59% # Reads before turning the bus around for writes
system.mem_ctrls.rdPerTurnAround::2048-3071            1      0.11%     98.70% # Reads before turning the bus around for writes
system.mem_ctrls.rdPerTurnAround::3072-4095            1      0.11%     98.81% # Reads before turning the bus around for writes
system.mem_ctrls.rdPerTurnAround::4096-5119            1      0.11%     98.92% # Reads before turning the bus around for writes
system.mem_ctrls.rdPerTurnAround::6144-7167            2      0.22%     99.13% # Reads before turning the bus around for writes
system.mem_ctrls.rdPerTurnAround::8192-9215            3      0.33%     99.46% # Reads before turning the bus around for writes
system.mem_ctrls.rdPerTurnAround::9216-10239            1      0.11%     99.57% # Reads before turning the bus around for writes
system.mem_ctrls.rdPerTurnAround::10240-11263            1      0.11%     99.67% # Reads before turning the bus around for writes
system.mem_ctrls.rdPerTurnAround::11264-12287            1      0.11%     99.78% # Reads before turning the bus around for writes
system.mem_ctrls.rdPerTurnAround::12288-13311            1      0.11%     99.89% # Reads before turning the bus around for writes
system.mem_ctrls.rdPerTurnAround::18432-19455            1      0.11%    100.00% # Reads before turning the bus around for writes
system.mem_ctrls.rdPerTurnAround::total           923                       # Reads before turning the bus around for writes
system.mem_ctrls.wrPerTurnAround::samples          923                       # Writes before turning the bus around for reads
system.mem_ctrls.wrPerTurnAround::mean      18.791983                       # Writes before turning the bus around for reads
system.mem_ctrls.wrPerTurnAround::gmean     18.472482                       # Writes before turning the bus around for reads
system.mem_ctrls.wrPerTurnAround::stdev      4.134672                       # Writes before turning the bus around for reads
system.mem_ctrls.wrPerTurnAround::16              184     19.93%     19.93% # Writes before turning the bus around for reads
system.mem_ctrls.wrPerTurnAround::17                8      0.87%     20.80% # Writes before turning the bus around for reads
system.mem_ctrls.wrPerTurnAround::18              590     63.92%     84.72% # Writes before turning the bus around for reads
system.mem_ctrls.wrPerTurnAround::19               49      5.31%     90.03% # Writes before turning the bus around for reads
system.mem_ctrls.wrPerTurnAround::20                6      0.65%     90.68% # Writes before turning the bus around for reads
system.mem_ctrls.wrPerTurnAround::21                3      0.33%     91.01% # Writes before turning the bus around for reads
system.mem_ctrls.wrPerTurnAround::22                2      0.22%     91.22% # Writes before turning the bus around for reads
system.mem_ctrls.wrPerTurnAround::23               17      1.84%     93.07% # Writes before turning the bus around for reads
system.mem_ctrls.wrPerTurnAround::24                7      0.76%     93.82% # Writes before turning the bus around for reads
system.mem_ctrls.wrPerTurnAround::25                1      0.11%     93.93% # Writes before turning the bus around for reads
system.mem_ctrls.wrPerTurnAround::28                3      0.33%     94.26% # Writes before turning the bus around for reads
system.mem_ctrls.wrPerTurnAround::29                5      0.54%     94.80% # Writes before turning the bus around for reads
system.mem_ctrls.wrPerTurnAround::30                2      0.22%     95.02% # Writes before turning the bus around for reads
system.mem_ctrls.wrPerTurnAround::31                1      0.11%     95.12% # Writes before turning the bus around for reads
system.mem_ctrls.wrPerTurnAround::32                1      0.11%     95.23% # Writes before turning the bus around for reads
system.mem_ctrls.wrPerTurnAround::34                5      0.54%     95.77% # Writes before turning the bus around for reads
system.mem_ctrls.wrPerTurnAround::35               36      3.90%     99.67% # Writes before turning the bus around for reads
system.mem_ctrls.wrPerTurnAround::40                2      0.22%     99.89% # Writes before turning the bus around for reads
system.mem_ctrls.wrPerTurnAround::41                1      0.11%    100.00% # Writes before turning the bus around for reads
system.mem_ctrls.wrPerTurnAround::total           923                       # Writes before turning the bus around for reads
system.mem_ctrls.totQLat                    965679742                       # Total ticks spent queuing
system.mem_ctrls.totMemAccLat              4149035992                       # Total ticks spent from burst creation until serviced by the DRAM
system.mem_ctrls.totBusLat                  848895000                       # Total ticks spent in databus transfers
system.mem_ctrls.avgQLat                      5687.86                       # Average queueing delay per DRAM burst
system.mem_ctrls.avgBusLat                    5000.00                       # Average bus latency per DRAM burst
system.mem_ctrls.avgMemAccLat                24437.86                       # Average memory access latency per DRAM burst
system.mem_ctrls.avgRdBW                         3.67                       # Average DRAM read bandwidth in MiByte/s
system.mem_ctrls.avgWrBW                         0.37                       # Average achieved write bandwidth in MiByte/s
system.mem_ctrls.avgRdBWSys                      3.67                       # Average system read bandwidth in MiByte/s
system.mem_ctrls.avgWrBWSys                      0.37                       # Average system write bandwidth in MiByte/s
system.mem_ctrls.peakBW                      12800.00                       # Theoretical peak bandwidth in MiByte/s
system.mem_ctrls.busUtil                         0.03                       # Data bus utilization in percentage
system.mem_ctrls.busUtilRead                     0.03                       # Data bus utilization in percentage for reads
system.mem_ctrls.busUtilWrite                    0.00                       # Data bus utilization in percentage for writes
system.mem_ctrls.avgRdQLen                       1.00                       # Average read queue length when enqueuing
system.mem_ctrls.avgWrQLen                      24.43                       # Average write queue length when enqueuing
system.mem_ctrls.readRowHits                   136639                       # Number of row buffer hits during reads
system.mem_ctrls.writeRowHits                    7147                       # Number of row buffer hits during writes
system.mem_ctrls.readRowHitRate                 80.48                       # Row buffer hit rate for reads
system.mem_ctrls.writeRowHitRate                41.23                       # Row buffer hit rate for writes
system.mem_ctrls.avgGap                   15819550.70                       # Average gap between requests
system.mem_ctrls.pageHitRate                    76.84                       # Row buffer hit rate, read and write combined
system.mem_ctrls_0.actEnergy                188916840                       # Energy for activate commands per rank (pJ)
system.mem_ctrls_0.preEnergy                103079625                       # Energy for precharge commands per rank (pJ)
system.mem_ctrls_0.readEnergy               744315000                       # Energy for read commands per rank (pJ)
system.mem_ctrls_0.writeEnergy               62791200                       # Energy for write commands per rank (pJ)
system.mem_ctrls_0.refreshEnergy         193640831280                       # Energy for refresh commands per rank (pJ)
system.mem_ctrls_0.actBackEnergy          90535558410                       # Energy for active background per rank (pJ)
system.mem_ctrls_0.preBackEnergy         1699412544750                       # Energy for precharge background per rank (pJ)
system.mem_ctrls_0.totalEnergy           1984688037105                       # Total energy per rank (pJ)
system.mem_ctrls_0.averagePower            669.436103                       # Core power per rank (mW)
system.mem_ctrls_0.memoryStateTime::IDLE 2825559589000                       # Time in different power states
system.mem_ctrls_0.memoryStateTime::REF   98865000000                       # Time in different power states
system.mem_ctrls_0.memoryStateTime::PRE_PDN            0                       # Time in different power states
system.mem_ctrls_0.memoryStateTime::ACT   36294216000                       # Time in different power states
system.mem_ctrls_0.memoryStateTime::ACT_PDN            0                       # Time in different power states
system.mem_ctrls_1.actEnergy                170417520                       # Energy for activate commands per rank (pJ)
system.mem_ctrls_1.preEnergy                 92985750                       # Energy for precharge commands per rank (pJ)
system.mem_ctrls_1.readEnergy               728598000                       # Energy for read commands per rank (pJ)
system.mem_ctrls_1.writeEnergy               49604400                       # Energy for write commands per rank (pJ)
system.mem_ctrls_1.refreshEnergy         193640831280                       # Energy for refresh commands per rank (pJ)
system.mem_ctrls_1.actBackEnergy          88876999485                       # Energy for active background per rank (pJ)
system.mem_ctrls_1.preBackEnergy         1700867421000                       # Energy for precharge background per rank (pJ)
system.mem_ctrls_1.totalEnergy           1984426857435                       # Total energy per rank (pJ)
system.mem_ctrls_1.averagePower            669.348007                       # Core power per rank (mW)
system.mem_ctrls_1.memoryStateTime::IDLE 2827810845000                       # Time in different power states
system.mem_ctrls_1.memoryStateTime::REF   98865000000                       # Time in different power states
system.mem_ctrls_1.memoryStateTime::PRE_PDN            0                       # Time in different power states
system.mem_ctrls_1.memoryStateTime::ACT   34045717500                       # Time in different power states
system.mem_ctrls_1.memoryStateTime::ACT_PDN            0                       # Time in different power states
system.cpu_voltage_domain.voltage                   1                       # Voltage in Volts
system.cpu_clk_domain.clock                       500                       # Clock period in ticks
system.cpu0.apic_clk_domain.clock                8000                       # Clock period in ticks
system.cpu0.numCycles                      5919479706                       # number of cpu cycles simulated
system.cpu0.numWorkItemsStarted                     0                       # number of work items this cpu started
system.cpu0.numWorkItemsCompleted                   0                       # number of work items this cpu completed
system.cpu0.kern.inst.arm                           0                       # number of arm instructions executed
system.cpu0.kern.inst.quiesce                       0                       # number of quiesce instructions executed
system.cpu0.committedInsts                    3735980                       # Number of instructions committed
system.cpu0.committedOps                      7763709                       # Number of ops (including micro ops) committed
system.cpu0.num_int_alu_accesses              7625372                       # Number of integer alu accesses
system.cpu0.num_fp_alu_accesses                  1778                       # Number of float alu accesses
system.cpu0.num_func_calls                     202376                       # number of times a function call or return occured
system.cpu0.num_conditional_control_insts       625226                       # number of instructions that are conditional controls
system.cpu0.num_int_insts                     7625372                       # number of integer instructions
system.cpu0.num_fp_insts                         1778                       # number of float instructions
system.cpu0.num_int_register_reads           15133170                       # number of times the integer registers were read
system.cpu0.num_int_register_writes           6245889                       # number of times the integer registers were written
system.cpu0.num_fp_register_reads                2988                       # number of times the floating registers were read
system.cpu0.num_fp_register_writes               1416                       # number of times the floating registers were written
system.cpu0.num_cc_register_reads             4737675                       # number of times the CC registers were read
system.cpu0.num_cc_register_writes            2519963                       # number of times the CC registers were written
system.cpu0.num_mem_refs                      1698080                       # number of memory refs
system.cpu0.num_load_insts                    1055874                       # Number of load instructions
system.cpu0.num_store_insts                    642206                       # Number of store instructions
system.cpu0.num_idle_cycles              5903402528.359203                       # Number of idle cycles
system.cpu0.num_busy_cycles              16077177.640796                       # Number of busy cycles
system.cpu0.not_idle_fraction                0.002716                       # Percentage of non-idle cycles
system.cpu0.idle_fraction                    0.997284                       # Percentage of idle cycles
system.cpu0.Branches                           887826                       # Number of branches fetched
system.cpu0.op_class::No_OpClass                98012      1.26%      1.26% # Class of executed instruction
system.cpu0.op_class::IntAlu                  5923396     76.30%     77.56% # Class of executed instruction
system.cpu0.op_class::IntMult                   11917      0.15%     77.71% # Class of executed instruction
system.cpu0.op_class::IntDiv                    31051      0.40%     78.11% # Class of executed instruction
system.cpu0.op_class::FloatAdd                   1344      0.02%     78.13% # Class of executed instruction
system.cpu0.op_class::FloatCmp                      0      0.00%     78.13% # Class of executed instruction
system.cpu0.op_class::FloatCvt                      0      0.00%     78.13% # Class of executed instruction
system.cpu0.op_class::FloatMult                     0      0.00%     78.13% # Class of executed instruction
system.cpu0.op_class::FloatDiv                      0      0.00%     78.13% # Class of executed instruction
system.cpu0.op_class::FloatSqrt                     0      0.00%     78.13% # Class of executed instruction
system.cpu0.op_class::SimdAdd                       0      0.00%     78.13% # Class of executed instruction
system.cpu0.op_class::SimdAddAcc                    0      0.00%     78.13% # Class of executed instruction
system.cpu0.op_class::SimdAlu                       0      0.00%     78.13% # Class of executed instruction
system.cpu0.op_class::SimdCmp                       0      0.00%     78.13% # Class of executed instruction
system.cpu0.op_class::SimdCvt                       0      0.00%     78.13% # Class of executed instruction
system.cpu0.op_class::SimdMisc                      0      0.00%     78.13% # Class of executed instruction
system.cpu0.op_class::SimdMult                      0      0.00%     78.13% # Class of executed instruction
system.cpu0.op_class::SimdMultAcc                   0      0.00%     78.13% # Class of executed instruction
system.cpu0.op_class::SimdShift                     0      0.00%     78.13% # Class of executed instruction
system.cpu0.op_class::SimdShiftAcc                  0      0.00%     78.13% # Class of executed instruction
system.cpu0.op_class::SimdSqrt                      0      0.00%     78.13% # Class of executed instruction
system.cpu0.op_class::SimdFloatAdd                  0      0.00%     78.13% # Class of executed instruction
system.cpu0.op_class::SimdFloatAlu                  0      0.00%     78.13% # Class of executed instruction
system.cpu0.op_class::SimdFloatCmp                  0      0.00%     78.13% # Class of executed instruction
system.cpu0.op_class::SimdFloatCvt                  0      0.00%     78.13% # Class of executed instruction
system.cpu0.op_class::SimdFloatDiv                  0      0.00%     78.13% # Class of executed instruction
system.cpu0.op_class::SimdFloatMisc                 0      0.00%     78.13% # Class of executed instruction
system.cpu0.op_class::SimdFloatMult                 0      0.00%     78.13% # Class of executed instruction
system.cpu0.op_class::SimdFloatMultAcc              0      0.00%     78.13% # Class of executed instruction
system.cpu0.op_class::SimdFloatSqrt                 0      0.00%     78.13% # Class of executed instruction
system.cpu0.op_class::MemRead                 1055874     13.60%     91.73% # Class of executed instruction
system.cpu0.op_class::MemWrite                 642206      8.27%    100.00% # Class of executed instruction
system.cpu0.op_class::IprAccess                     0      0.00%    100.00% # Class of executed instruction
system.cpu0.op_class::InstPrefetch                  0      0.00%    100.00% # Class of executed instruction
system.cpu0.op_class::total                   7763800                       # Class of executed instruction
system.cpu1.apic_clk_domain.clock                8000                       # Clock period in ticks
system.cpu1.numCycles                      5924173002                       # number of cpu cycles simulated
system.cpu1.numWorkItemsStarted                     0                       # number of work items this cpu started
system.cpu1.numWorkItemsCompleted                   0                       # number of work items this cpu completed
system.cpu1.kern.inst.arm                           0                       # number of arm instructions executed
system.cpu1.kern.inst.quiesce                       0                       # number of quiesce instructions executed
system.cpu1.committedInsts                    4503499                       # Number of instructions committed
system.cpu1.committedOps                      9257289                       # Number of ops (including micro ops) committed
system.cpu1.num_int_alu_accesses              9091922                       # Number of integer alu accesses
system.cpu1.num_fp_alu_accesses                    50                       # Number of float alu accesses
system.cpu1.num_func_calls                     222546                       # number of times a function call or return occured
system.cpu1.num_conditional_control_insts       789605                       # number of instructions that are conditional controls
system.cpu1.num_int_insts                     9091922                       # number of integer instructions
system.cpu1.num_fp_insts                           50                       # number of float instructions
system.cpu1.num_int_register_reads           17864131                       # number of times the integer registers were read
system.cpu1.num_int_register_writes           7481986                       # number of times the integer registers were written
system.cpu1.num_fp_register_reads                  78                       # number of times the floating registers were read
system.cpu1.num_fp_register_writes                 38                       # number of times the floating registers were written
system.cpu1.num_cc_register_reads             5886600                       # number of times the CC registers were read
system.cpu1.num_cc_register_writes            3076033                       # number of times the CC registers were written
system.cpu1.num_mem_refs                      1920594                       # number of memory refs
system.cpu1.num_load_insts                    1227758                       # Number of load instructions
system.cpu1.num_store_insts                    692836                       # Number of store instructions
system.cpu1.num_idle_cycles              5905604973.503110                       # Number of idle cycles
system.cpu1.num_busy_cycles              18568028.496890                       # Number of busy cycles
system.cpu1.not_idle_fraction                0.003134                       # Percentage of non-idle cycles
system.cpu1.idle_fraction                    0.996866                       # Percentage of idle cycles
system.cpu1.Branches                          1083497                       # Number of branches fetched
system.cpu1.op_class::No_OpClass               112769      1.22%      1.22% # Class of executed instruction
system.cpu1.op_class::IntAlu                  7174787     77.50%     78.72% # Class of executed instruction
system.cpu1.op_class::IntMult                   17092      0.18%     78.91% # Class of executed instruction
system.cpu1.op_class::IntDiv                    32038      0.35%     79.25% # Class of executed instruction
system.cpu1.op_class::FloatAdd                     32      0.00%     79.25% # Class of executed instruction
system.cpu1.op_class::FloatCmp                      0      0.00%     79.25% # Class of executed instruction
system.cpu1.op_class::FloatCvt                      0      0.00%     79.25% # Class of executed instruction
system.cpu1.op_class::FloatMult                     0      0.00%     79.25% # Class of executed instruction
system.cpu1.op_class::FloatDiv                      0      0.00%     79.25% # Class of executed instruction
system.cpu1.op_class::FloatSqrt                     0      0.00%     79.25% # Class of executed instruction
system.cpu1.op_class::SimdAdd                       0      0.00%     79.25% # Class of executed instruction
system.cpu1.op_class::SimdAddAcc                    0      0.00%     79.25% # Class of executed instruction
system.cpu1.op_class::SimdAlu                       0      0.00%     79.25% # Class of executed instruction
system.cpu1.op_class::SimdCmp                       0      0.00%     79.25% # Class of executed instruction
system.cpu1.op_class::SimdCvt                       0      0.00%     79.25% # Class of executed instruction
system.cpu1.op_class::SimdMisc                      0      0.00%     79.25% # Class of executed instruction
system.cpu1.op_class::SimdMult                      0      0.00%     79.25% # Class of executed instruction
system.cpu1.op_class::SimdMultAcc                   0      0.00%     79.25% # Class of executed instruction
system.cpu1.op_class::SimdShift                     0      0.00%     79.25% # Class of executed instruction
system.cpu1.op_class::SimdShiftAcc                  0      0.00%     79.25% # Class of executed instruction
system.cpu1.op_class::SimdSqrt                      0      0.00%     79.25% # Class of executed instruction
system.cpu1.op_class::SimdFloatAdd                  0      0.00%     79.25% # Class of executed instruction
system.cpu1.op_class::SimdFloatAlu                  0      0.00%     79.25% # Class of executed instruction
system.cpu1.op_class::SimdFloatCmp                  0      0.00%     79.25% # Class of executed instruction
system.cpu1.op_class::SimdFloatCvt                  0      0.00%     79.25% # Class of executed instruction
system.cpu1.op_class::SimdFloatDiv                  0      0.00%     79.25% # Class of executed instruction
system.cpu1.op_class::SimdFloatMisc                 0      0.00%     79.25% # Class of executed instruction
system.cpu1.op_class::SimdFloatMult                 0      0.00%     79.25% # Class of executed instruction
system.cpu1.op_class::SimdFloatMultAcc              0      0.00%     79.25% # Class of executed instruction
system.cpu1.op_class::SimdFloatSqrt                 0      0.00%     79.25% # Class of executed instruction
system.cpu1.op_class::MemRead                 1227758     13.26%     92.52% # Class of executed instruction
system.cpu1.op_class::MemWrite                 692836      7.48%    100.00% # Class of executed instruction
system.cpu1.op_class::IprAccess                     0      0.00%    100.00% # Class of executed instruction
system.cpu1.op_class::InstPrefetch                  0      0.00%    100.00% # Class of executed instruction
system.cpu1.op_class::total                   9257312                       # Class of executed instruction
system.cpu2.apic_clk_domain.clock                8000                       # Clock period in ticks
system.cpu2.numCycles                      5922420689                       # number of cpu cycles simulated
system.cpu2.numWorkItemsStarted                     0                       # number of work items this cpu started
system.cpu2.numWorkItemsCompleted                   0                       # number of work items this cpu completed
system.cpu2.kern.inst.arm                           0                       # number of arm instructions executed
system.cpu2.kern.inst.quiesce                       0                       # number of quiesce instructions executed
system.cpu2.committedInsts                 1521277850                       # Number of instructions committed
system.cpu2.committedOps                   2545008353                       # Number of ops (including micro ops) committed
system.cpu2.num_int_alu_accesses           1949510257                       # Number of integer alu accesses
system.cpu2.num_fp_alu_accesses             965601751                       # Number of float alu accesses
system.cpu2.num_func_calls                   35453587                       # number of times a function call or return occured
system.cpu2.num_conditional_control_insts    171621385                       # number of instructions that are conditional controls
system.cpu2.num_int_insts                  1949510257                       # number of integer instructions
system.cpu2.num_fp_insts                    965601751                       # number of float instructions
system.cpu2.num_int_register_reads         4129753297                       # number of times the integer registers were read
system.cpu2.num_int_register_writes        1329480293                       # number of times the integer registers were written
system.cpu2.num_fp_register_reads          1529965690                       # number of times the floating registers were read
system.cpu2.num_fp_register_writes          790021441                       # number of times the floating registers were written
system.cpu2.num_cc_register_reads          1447246282                       # number of times the CC registers were read
system.cpu2.num_cc_register_writes          550120110                       # number of times the CC registers were written
system.cpu2.num_mem_refs                    644762692                       # number of memory refs
system.cpu2.num_load_insts                  478358716                       # Number of load instructions
system.cpu2.num_store_insts                 166403976                       # Number of store instructions
system.cpu2.num_idle_cycles              4680562.883140                       # Number of idle cycles
system.cpu2.num_busy_cycles              5917740126.116860                       # Number of busy cycles
system.cpu2.not_idle_fraction                0.999210                       # Percentage of non-idle cycles
system.cpu2.idle_fraction                    0.000790                       # Percentage of idle cycles
system.cpu2.Branches                        231456931                       # Number of branches fetched
system.cpu2.op_class::No_OpClass              3381352      0.13%      0.13% # Class of executed instruction
system.cpu2.op_class::IntAlu               1473360942     57.89%     58.03% # Class of executed instruction
system.cpu2.op_class::IntMult                 4731811      0.19%     58.21% # Class of executed instruction
system.cpu2.op_class::IntDiv                 19610560      0.77%     58.98% # Class of executed instruction
system.cpu2.op_class::FloatAdd              398093016     15.64%     74.62% # Class of executed instruction
system.cpu2.op_class::FloatCmp                      0      0.00%     74.62% # Class of executed instruction
system.cpu2.op_class::FloatCvt                      0      0.00%     74.62% # Class of executed instruction
system.cpu2.op_class::FloatMult                     0      0.00%     74.62% # Class of executed instruction
system.cpu2.op_class::FloatDiv                1068156      0.04%     74.67% # Class of executed instruction
system.cpu2.op_class::FloatSqrt                     0      0.00%     74.67% # Class of executed instruction
system.cpu2.op_class::SimdAdd                       0      0.00%     74.67% # Class of executed instruction
system.cpu2.op_class::SimdAddAcc                    0      0.00%     74.67% # Class of executed instruction
system.cpu2.op_class::SimdAlu                       0      0.00%     74.67% # Class of executed instruction
system.cpu2.op_class::SimdCmp                       0      0.00%     74.67% # Class of executed instruction
system.cpu2.op_class::SimdCvt                       0      0.00%     74.67% # Class of executed instruction
system.cpu2.op_class::SimdMisc                      0      0.00%     74.67% # Class of executed instruction
system.cpu2.op_class::SimdMult                      0      0.00%     74.67% # Class of executed instruction
system.cpu2.op_class::SimdMultAcc                   0      0.00%     74.67% # Class of executed instruction
system.cpu2.op_class::SimdShift                     0      0.00%     74.67% # Class of executed instruction
system.cpu2.op_class::SimdShiftAcc                  0      0.00%     74.67% # Class of executed instruction
system.cpu2.op_class::SimdSqrt                      0      0.00%     74.67% # Class of executed instruction
system.cpu2.op_class::SimdFloatAdd                  0      0.00%     74.67% # Class of executed instruction
system.cpu2.op_class::SimdFloatAlu                  0      0.00%     74.67% # Class of executed instruction
system.cpu2.op_class::SimdFloatCmp                  0      0.00%     74.67% # Class of executed instruction
system.cpu2.op_class::SimdFloatCvt                  0      0.00%     74.67% # Class of executed instruction
system.cpu2.op_class::SimdFloatDiv                  0      0.00%     74.67% # Class of executed instruction
system.cpu2.op_class::SimdFloatMisc                 0      0.00%     74.67% # Class of executed instruction
system.cpu2.op_class::SimdFloatMult                 0      0.00%     74.67% # Class of executed instruction
system.cpu2.op_class::SimdFloatMultAcc              0      0.00%     74.67% # Class of executed instruction
system.cpu2.op_class::SimdFloatSqrt                 0      0.00%     74.67% # Class of executed instruction
system.cpu2.op_class::MemRead               478358716     18.80%     93.46% # Class of executed instruction
system.cpu2.op_class::MemWrite              166403976      6.54%    100.00% # Class of executed instruction
system.cpu2.op_class::IprAccess                     0      0.00%    100.00% # Class of executed instruction
system.cpu2.op_class::InstPrefetch                  0      0.00%    100.00% # Class of executed instruction
system.cpu2.op_class::total                2545008529                       # Class of executed instruction
system.cpu3.apic_clk_domain.clock                8000                       # Clock period in ticks
system.cpu3.numCycles                      5918002089                       # number of cpu cycles simulated
system.cpu3.numWorkItemsStarted                     0                       # number of work items this cpu started
system.cpu3.numWorkItemsCompleted                   0                       # number of work items this cpu completed
system.cpu3.kern.inst.arm                           0                       # number of arm instructions executed
system.cpu3.kern.inst.quiesce                       0                       # number of quiesce instructions executed
system.cpu3.committedInsts                    2670261                       # Number of instructions committed
system.cpu3.committedOps                      5674866                       # Number of ops (including micro ops) committed
system.cpu3.num_int_alu_accesses              5562439                       # Number of integer alu accesses
system.cpu3.num_fp_alu_accesses                     0                       # Number of float alu accesses
system.cpu3.num_func_calls                     148280                       # number of times a function call or return occured
system.cpu3.num_conditional_control_insts       460636                       # number of instructions that are conditional controls
system.cpu3.num_int_insts                     5562439                       # number of integer instructions
system.cpu3.num_fp_insts                            0                       # number of float instructions
system.cpu3.num_int_register_reads           11021763                       # number of times the integer registers were read
system.cpu3.num_int_register_writes           4590132                       # number of times the integer registers were written
system.cpu3.num_fp_register_reads                   0                       # number of times the floating registers were read
system.cpu3.num_fp_register_writes                  0                       # number of times the floating registers were written
system.cpu3.num_cc_register_reads             3513330                       # number of times the CC registers were read
system.cpu3.num_cc_register_writes            1778467                       # number of times the CC registers were written
system.cpu3.num_mem_refs                      1244813                       # number of memory refs
system.cpu3.num_load_insts                     778393                       # Number of load instructions
system.cpu3.num_store_insts                    466420                       # Number of store instructions
system.cpu3.num_idle_cycles              5906914236.871747                       # Number of idle cycles
system.cpu3.num_busy_cycles              11087852.128253                       # Number of busy cycles
system.cpu3.not_idle_fraction                0.001874                       # Percentage of non-idle cycles
system.cpu3.idle_fraction                    0.998126                       # Percentage of idle cycles
system.cpu3.Branches                           654920                       # Number of branches fetched
system.cpu3.op_class::No_OpClass                91794      1.62%      1.62% # Class of executed instruction
system.cpu3.op_class::IntAlu                  4295527     75.69%     77.31% # Class of executed instruction
system.cpu3.op_class::IntMult                   10206      0.18%     77.49% # Class of executed instruction
system.cpu3.op_class::IntDiv                    32529      0.57%     78.06% # Class of executed instruction
system.cpu3.op_class::FloatAdd                      0      0.00%     78.06% # Class of executed instruction
system.cpu3.op_class::FloatCmp                      0      0.00%     78.06% # Class of executed instruction
system.cpu3.op_class::FloatCvt                      0      0.00%     78.06% # Class of executed instruction
system.cpu3.op_class::FloatMult                     0      0.00%     78.06% # Class of executed instruction
system.cpu3.op_class::FloatDiv                      0      0.00%     78.06% # Class of executed instruction
system.cpu3.op_class::FloatSqrt                     0      0.00%     78.06% # Class of executed instruction
system.cpu3.op_class::SimdAdd                       0      0.00%     78.06% # Class of executed instruction
system.cpu3.op_class::SimdAddAcc                    0      0.00%     78.06% # Class of executed instruction
system.cpu3.op_class::SimdAlu                       0      0.00%     78.06% # Class of executed instruction
system.cpu3.op_class::SimdCmp                       0      0.00%     78.06% # Class of executed instruction
system.cpu3.op_class::SimdCvt                       0      0.00%     78.06% # Class of executed instruction
system.cpu3.op_class::SimdMisc                      0      0.00%     78.06% # Class of executed instruction
system.cpu3.op_class::SimdMult                      0      0.00%     78.06% # Class of executed instruction
system.cpu3.op_class::SimdMultAcc                   0      0.00%     78.06% # Class of executed instruction
system.cpu3.op_class::SimdShift                     0      0.00%     78.06% # Class of executed instruction
system.cpu3.op_class::SimdShiftAcc                  0      0.00%     78.06% # Class of executed instruction
system.cpu3.op_class::SimdSqrt                      0      0.00%     78.06% # Class of executed instruction
system.cpu3.op_class::SimdFloatAdd                  0      0.00%     78.06% # Class of executed instruction
system.cpu3.op_class::SimdFloatAlu                  0      0.00%     78.06% # Class of executed instruction
system.cpu3.op_class::SimdFloatCmp                  0      0.00%     78.06% # Class of executed instruction
system.cpu3.op_class::SimdFloatCvt                  0      0.00%     78.06% # Class of executed instruction
system.cpu3.op_class::SimdFloatDiv                  0      0.00%     78.06% # Class of executed instruction
system.cpu3.op_class::SimdFloatMisc                 0      0.00%     78.06% # Class of executed instruction
system.cpu3.op_class::SimdFloatMult                 0      0.00%     78.06% # Class of executed instruction
system.cpu3.op_class::SimdFloatMultAcc              0      0.00%     78.06% # Class of executed instruction
system.cpu3.op_class::SimdFloatSqrt                 0      0.00%     78.06% # Class of executed instruction
system.cpu3.op_class::MemRead                  778393     13.72%     91.78% # Class of executed instruction
system.cpu3.op_class::MemWrite                 466420      8.22%    100.00% # Class of executed instruction
system.cpu3.op_class::IprAccess                     0      0.00%    100.00% # Class of executed instruction
system.cpu3.op_class::InstPrefetch                  0      0.00%    100.00% # Class of executed instruction
system.cpu3.op_class::total                   5674869                       # Class of executed instruction
system.iobus.trans_dist::ReadReq                  871                       # Transaction distribution
system.iobus.trans_dist::ReadResp                 871                       # Transaction distribution
system.iobus.trans_dist::WriteReq                4603                       # Transaction distribution
system.iobus.trans_dist::WriteResp               4603                       # Transaction distribution
system.iobus.trans_dist::MessageReq               111                       # Transaction distribution
system.iobus.trans_dist::MessageResp              111                       # Transaction distribution
system.iobus.pkt_count_system.pc.south_bridge.io_apic.int_master::system.ruby.l1_cntrl0.sequencer.pio-slave-port           50                       # Packet count per connected master and slave (bytes)
system.iobus.pkt_count_system.pc.south_bridge.io_apic.int_master::system.ruby.l1_cntrl1.sequencer.pio-slave-port           52                       # Packet count per connected master and slave (bytes)
system.iobus.pkt_count_system.pc.south_bridge.io_apic.int_master::system.ruby.l1_cntrl2.sequencer.pio-slave-port           52                       # Packet count per connected master and slave (bytes)
system.iobus.pkt_count_system.pc.south_bridge.io_apic.int_master::system.ruby.l1_cntrl3.sequencer.pio-slave-port           50                       # Packet count per connected master and slave (bytes)
system.iobus.pkt_count_system.pc.south_bridge.io_apic.int_master::total          204                       # Packet count per connected master and slave (bytes)
system.iobus.pkt_count_system.ruby.l1_cntrl0.sequencer.mem-master-port::system.pc.south_bridge.ide.pio         1070                       # Packet count per connected master and slave (bytes)
system.iobus.pkt_count_system.ruby.l1_cntrl0.sequencer.mem-master-port::system.pc.south_bridge.io_apic.pio            6                       # Packet count per connected master and slave (bytes)
system.iobus.pkt_count_system.ruby.l1_cntrl0.sequencer.mem-master-port::system.pc.com_1.pio          174                       # Packet count per connected master and slave (bytes)
system.iobus.pkt_count_system.ruby.l1_cntrl0.sequencer.mem-master-port::system.ruby.l1_cntrl0.sequencer.pio-slave-port         1550                       # Packet count per connected master and slave (bytes)
system.iobus.pkt_count_system.ruby.l1_cntrl0.sequencer.mem-master-port::system.ruby.l1_cntrl1.sequencer.pio-slave-port            2                       # Packet count per connected master and slave (bytes)
system.iobus.pkt_count_system.ruby.l1_cntrl0.sequencer.mem-master-port::system.ruby.l1_cntrl2.sequencer.pio-slave-port            2                       # Packet count per connected master and slave (bytes)
system.iobus.pkt_count_system.ruby.l1_cntrl0.sequencer.mem-master-port::system.ruby.l1_cntrl3.sequencer.pio-slave-port            2                       # Packet count per connected master and slave (bytes)
system.iobus.pkt_count_system.ruby.l1_cntrl0.sequencer.mem-master-port::total         2806                       # Packet count per connected master and slave (bytes)
system.iobus.pkt_count_system.ruby.l1_cntrl1.sequencer.mem-master-port::system.pc.south_bridge.ide.pio         1490                       # Packet count per connected master and slave (bytes)
system.iobus.pkt_count_system.ruby.l1_cntrl1.sequencer.mem-master-port::system.pc.south_bridge.io_apic.pio            8                       # Packet count per connected master and slave (bytes)
system.iobus.pkt_count_system.ruby.l1_cntrl1.sequencer.mem-master-port::system.pc.com_1.pio            2                       # Packet count per connected master and slave (bytes)
system.iobus.pkt_count_system.ruby.l1_cntrl1.sequencer.mem-master-port::system.ruby.l1_cntrl1.sequencer.pio-slave-port         1546                       # Packet count per connected master and slave (bytes)
system.iobus.pkt_count_system.ruby.l1_cntrl1.sequencer.mem-master-port::system.ruby.l1_cntrl2.sequencer.pio-slave-port            2                       # Packet count per connected master and slave (bytes)
system.iobus.pkt_count_system.ruby.l1_cntrl1.sequencer.mem-master-port::total         3048                       # Packet count per connected master and slave (bytes)
system.iobus.pkt_count_system.ruby.l1_cntrl2.sequencer.mem-master-port::system.pc.south_bridge.ide.pio         1048                       # Packet count per connected master and slave (bytes)
system.iobus.pkt_count_system.ruby.l1_cntrl2.sequencer.mem-master-port::system.pc.south_bridge.io_apic.pio            8                       # Packet count per connected master and slave (bytes)
system.iobus.pkt_count_system.ruby.l1_cntrl2.sequencer.mem-master-port::system.ruby.l1_cntrl1.sequencer.pio-slave-port            6                       # Packet count per connected master and slave (bytes)
system.iobus.pkt_count_system.ruby.l1_cntrl2.sequencer.mem-master-port::system.ruby.l1_cntrl2.sequencer.pio-slave-port         1560                       # Packet count per connected master and slave (bytes)
system.iobus.pkt_count_system.ruby.l1_cntrl2.sequencer.mem-master-port::system.ruby.l1_cntrl3.sequencer.pio-slave-port            2                       # Packet count per connected master and slave (bytes)
system.iobus.pkt_count_system.ruby.l1_cntrl2.sequencer.mem-master-port::total         2624                       # Packet count per connected master and slave (bytes)
system.iobus.pkt_count_system.ruby.l1_cntrl3.sequencer.mem-master-port::system.pc.south_bridge.ide.pio          946                       # Packet count per connected master and slave (bytes)
system.iobus.pkt_count_system.ruby.l1_cntrl3.sequencer.mem-master-port::system.ruby.l1_cntrl0.sequencer.pio-slave-port            2                       # Packet count per connected master and slave (bytes)
system.iobus.pkt_count_system.ruby.l1_cntrl3.sequencer.mem-master-port::system.ruby.l1_cntrl3.sequencer.pio-slave-port         1540                       # Packet count per connected master and slave (bytes)
system.iobus.pkt_count_system.ruby.l1_cntrl3.sequencer.mem-master-port::total         2488                       # Packet count per connected master and slave (bytes)
system.iobus.pkt_count::total                   11170                       # Packet count per connected master and slave (bytes)
system.iobus.pkt_size_system.pc.south_bridge.io_apic.int_master::system.ruby.l1_cntrl0.sequencer.pio-slave-port          100                       # Cumulative packet size per connected master and slave (bytes)
system.iobus.pkt_size_system.pc.south_bridge.io_apic.int_master::system.ruby.l1_cntrl1.sequencer.pio-slave-port          104                       # Cumulative packet size per connected master and slave (bytes)
system.iobus.pkt_size_system.pc.south_bridge.io_apic.int_master::system.ruby.l1_cntrl2.sequencer.pio-slave-port          104                       # Cumulative packet size per connected master and slave (bytes)
system.iobus.pkt_size_system.pc.south_bridge.io_apic.int_master::system.ruby.l1_cntrl3.sequencer.pio-slave-port          100                       # Cumulative packet size per connected master and slave (bytes)
system.iobus.pkt_size_system.pc.south_bridge.io_apic.int_master::total          408                       # Cumulative packet size per connected master and slave (bytes)
system.iobus.pkt_size_system.ruby.l1_cntrl0.sequencer.mem-master-port::system.pc.south_bridge.ide.pio          604                       # Cumulative packet size per connected master and slave (bytes)
system.iobus.pkt_size_system.ruby.l1_cntrl0.sequencer.mem-master-port::system.pc.south_bridge.io_apic.pio           12                       # Cumulative packet size per connected master and slave (bytes)
system.iobus.pkt_size_system.ruby.l1_cntrl0.sequencer.mem-master-port::system.pc.com_1.pio           87                       # Cumulative packet size per connected master and slave (bytes)
system.iobus.pkt_size_system.ruby.l1_cntrl0.sequencer.mem-master-port::system.ruby.l1_cntrl0.sequencer.pio-slave-port         3100                       # Cumulative packet size per connected master and slave (bytes)
system.iobus.pkt_size_system.ruby.l1_cntrl0.sequencer.mem-master-port::system.ruby.l1_cntrl1.sequencer.pio-slave-port            4                       # Cumulative packet size per connected master and slave (bytes)
system.iobus.pkt_size_system.ruby.l1_cntrl0.sequencer.mem-master-port::system.ruby.l1_cntrl2.sequencer.pio-slave-port            4                       # Cumulative packet size per connected master and slave (bytes)
system.iobus.pkt_size_system.ruby.l1_cntrl0.sequencer.mem-master-port::system.ruby.l1_cntrl3.sequencer.pio-slave-port            4                       # Cumulative packet size per connected master and slave (bytes)
system.iobus.pkt_size_system.ruby.l1_cntrl0.sequencer.mem-master-port::total         3815                       # Cumulative packet size per connected master and slave (bytes)
system.iobus.pkt_size_system.ruby.l1_cntrl1.sequencer.mem-master-port::system.pc.south_bridge.ide.pio          850                       # Cumulative packet size per connected master and slave (bytes)
system.iobus.pkt_size_system.ruby.l1_cntrl1.sequencer.mem-master-port::system.pc.south_bridge.io_apic.pio           16                       # Cumulative packet size per connected master and slave (bytes)
system.iobus.pkt_size_system.ruby.l1_cntrl1.sequencer.mem-master-port::system.pc.com_1.pio            1                       # Cumulative packet size per connected master and slave (bytes)
system.iobus.pkt_size_system.ruby.l1_cntrl1.sequencer.mem-master-port::system.ruby.l1_cntrl1.sequencer.pio-slave-port         3092                       # Cumulative packet size per connected master and slave (bytes)
system.iobus.pkt_size_system.ruby.l1_cntrl1.sequencer.mem-master-port::system.ruby.l1_cntrl2.sequencer.pio-slave-port            4                       # Cumulative packet size per connected master and slave (bytes)
system.iobus.pkt_size_system.ruby.l1_cntrl1.sequencer.mem-master-port::total         3963                       # Cumulative packet size per connected master and slave (bytes)
system.iobus.pkt_size_system.ruby.l1_cntrl2.sequencer.mem-master-port::system.pc.south_bridge.ide.pio          590                       # Cumulative packet size per connected master and slave (bytes)
system.iobus.pkt_size_system.ruby.l1_cntrl2.sequencer.mem-master-port::system.pc.south_bridge.io_apic.pio           16                       # Cumulative packet size per connected master and slave (bytes)
system.iobus.pkt_size_system.ruby.l1_cntrl2.sequencer.mem-master-port::system.ruby.l1_cntrl1.sequencer.pio-slave-port           12                       # Cumulative packet size per connected master and slave (bytes)
system.iobus.pkt_size_system.ruby.l1_cntrl2.sequencer.mem-master-port::system.ruby.l1_cntrl2.sequencer.pio-slave-port         3120                       # Cumulative packet size per connected master and slave (bytes)
system.iobus.pkt_size_system.ruby.l1_cntrl2.sequencer.mem-master-port::system.ruby.l1_cntrl3.sequencer.pio-slave-port            4                       # Cumulative packet size per connected master and slave (bytes)
system.iobus.pkt_size_system.ruby.l1_cntrl2.sequencer.mem-master-port::total         3742                       # Cumulative packet size per connected master and slave (bytes)
system.iobus.pkt_size_system.ruby.l1_cntrl3.sequencer.mem-master-port::system.pc.south_bridge.ide.pio          530                       # Cumulative packet size per connected master and slave (bytes)
system.iobus.pkt_size_system.ruby.l1_cntrl3.sequencer.mem-master-port::system.ruby.l1_cntrl0.sequencer.pio-slave-port            4                       # Cumulative packet size per connected master and slave (bytes)
system.iobus.pkt_size_system.ruby.l1_cntrl3.sequencer.mem-master-port::system.ruby.l1_cntrl3.sequencer.pio-slave-port         3080                       # Cumulative packet size per connected master and slave (bytes)
system.iobus.pkt_size_system.ruby.l1_cntrl3.sequencer.mem-master-port::total         3614                       # Cumulative packet size per connected master and slave (bytes)
system.iobus.pkt_size::total                    15542                       # Cumulative packet size per connected master and slave (bytes)
system.iobus.reqLayer2.occupancy              3945500                       # Layer occupancy (ticks)
system.iobus.reqLayer2.utilization                0.0                       # Layer utilization (%)
system.iobus.reqLayer8.occupancy                19997                       # Layer occupancy (ticks)
system.iobus.reqLayer8.utilization                0.0                       # Layer utilization (%)
system.iobus.reqLayer12.occupancy              113000                       # Layer occupancy (ticks)
system.iobus.reqLayer12.utilization               0.0                       # Layer utilization (%)
system.iobus.reqLayer17.occupancy             1979974                       # Layer occupancy (ticks)
system.iobus.reqLayer17.utilization               0.0                       # Layer utilization (%)
system.iobus.reqLayer18.occupancy             1995975                       # Layer occupancy (ticks)
system.iobus.reqLayer18.utilization               0.0                       # Layer utilization (%)
system.iobus.reqLayer19.occupancy             2182252                       # Layer occupancy (ticks)
system.iobus.reqLayer19.utilization               0.0                       # Layer utilization (%)
system.iobus.reqLayer20.occupancy             1984975                       # Layer occupancy (ticks)
system.iobus.reqLayer20.utilization               0.0                       # Layer utilization (%)
system.iobus.respLayer0.occupancy              181901                       # Layer occupancy (ticks)
system.iobus.respLayer0.utilization               0.0                       # Layer utilization (%)
system.iobus.respLayer2.occupancy             2047500                       # Layer occupancy (ticks)
system.iobus.respLayer2.utilization               0.0                       # Layer utilization (%)
system.iobus.respLayer4.occupancy             2153500                       # Layer occupancy (ticks)
system.iobus.respLayer4.utilization               0.0                       # Layer utilization (%)
system.iobus.respLayer6.occupancy             1896500                       # Layer occupancy (ticks)
system.iobus.respLayer6.utilization               0.0                       # Layer utilization (%)
system.iobus.respLayer8.occupancy             1806000                       # Layer occupancy (ticks)
system.iobus.respLayer8.utilization               0.0                       # Layer utilization (%)
system.pc.south_bridge.ide.disks.dma_read_full_pages         1523                       # Number of full page size DMA reads (not PRD).
system.pc.south_bridge.ide.disks.dma_read_bytes      6238208                       # Number of bytes transfered via DMA reads (not PRD).
system.pc.south_bridge.ide.disks.dma_read_txs         1523                       # Number of DMA read transactions (not PRD).
system.pc.south_bridge.ide.disks.dma_write_full_pages           45                       # Number of full page size DMA writes.
system.pc.south_bridge.ide.disks.dma_write_bytes       184320                       # Number of bytes transfered via DMA writes.
system.pc.south_bridge.ide.disks.dma_write_txs           45                       # Number of DMA write transactions.
system.ruby.clk_domain.clock                      500                       # Clock period in ticks
system.ruby.outstanding_req_hist_seqr::bucket_size            1                      
system.ruby.outstanding_req_hist_seqr::max_bucket            9                      
system.ruby.outstanding_req_hist_seqr::samples   2882060720                      
system.ruby.outstanding_req_hist_seqr::mean     1.000000                      
system.ruby.outstanding_req_hist_seqr::gmean     1.000000                      
system.ruby.outstanding_req_hist_seqr::stdev     0.000265                      
system.ruby.outstanding_req_hist_seqr    |           0      0.00%      0.00% |  2882060518    100.00%    100.00% |         202      0.00%    100.00% |           0      0.00%    100.00% |           0      0.00%    100.00% |           0      0.00%    100.00% |           0      0.00%    100.00% |           0      0.00%    100.00% |           0      0.00%    100.00% |           0      0.00%    100.00%
system.ruby.outstanding_req_hist_seqr::total   2882060720                      
system.ruby.latency_hist_seqr::bucket_size          128                      
system.ruby.latency_hist_seqr::max_bucket         1279                      
system.ruby.latency_hist_seqr::samples     2882060720                      
system.ruby.latency_hist_seqr::mean          1.068535                      
system.ruby.latency_hist_seqr::gmean         1.011672                      
system.ruby.latency_hist_seqr::stdev         1.250330                      
[...]
system.ruby.L1Cache_Controller.O.L1_Replacement::total         1234                      
system.ruby.L1Cache_Controller.O.Fwd_GETX |        3428     22.03%     22.03% |        7215     46.37%     68.40% |         303      1.95%     70.34% |        4615     29.66%    100.00%
system.ruby.L1Cache_Controller.O.Fwd_GETX::total        15561                      
system.ruby.L1Cache_Controller.O.Fwd_GETS |        2082     13.68%     13.68% |        7939     52.17%     65.85% |         279      1.83%     67.69% |        4917     32.31%    100.00%
system.ruby.L1Cache_Controller.O.Fwd_GETS::total        15217                      
system.ruby.L1Cache_Controller.M.Load    |      116694      3.69%      3.69% |       82770      2.62%      6.30% |     2882116     91.06%     97.36% |       83562      2.64%    100.00%
system.ruby.L1Cache_Controller.M.Load::total      3165142                      
system.ruby.L1Cache_Controller.M.Store   |        9390      7.27%      7.27% |        5543      4.29%     11.56% |      108454     83.96%     95.52% |        5788      4.48%    100.00%
system.ruby.L1Cache_Controller.M.Store::total       129175                      
system.ruby.L1Cache_Controller.M.L1_Replacement |        6019      1.43%      1.43% |        3230      0.77%      2.20% |      406750     96.84%     99.04% |        4013      0.96%    100.00%
system.ruby.L1Cache_Controller.M.L1_Replacement::total       420012                      
system.ruby.L1Cache_Controller.M.Fwd_GETX |         718     49.90%     49.90% |         300     20.85%     70.74% |         143      9.94%     80.68% |         278     19.32%    100.00%
system.ruby.L1Cache_Controller.M.Fwd_GETX::total         1439                      
system.ruby.L1Cache_Controller.M.Fwd_GETS |        3877     22.83%     22.83% |        7643     45.01%     67.84% |         592      3.49%     71.32% |        4870     28.68%    100.00%
system.ruby.L1Cache_Controller.M.Fwd_GETS::total        16982                      
system.ruby.L1Cache_Controller.M_W.Load  |       14252      5.03%      5.03% |       11475      4.05%      9.09% |      246063     86.90%     95.99% |       11366      4.01%    100.00%
system.ruby.L1Cache_Controller.M_W.Load::total       283156                      
system.ruby.L1Cache_Controller.M_W.Store |        2563      3.58%      3.58% |        1641      2.29%      5.88% |       65793     92.01%     97.89% |        1510      2.11%    100.00%
system.ruby.L1Cache_Controller.M_W.Store::total        71507                      
system.ruby.L1Cache_Controller.M_W.L1_Replacement |           0      0.00%      0.00% |           0      0.00%      0.00% |           1      4.00%      4.00% |          24     96.00%    100.00%
system.ruby.L1Cache_Controller.M_W.L1_Replacement::total           25                      
system.ruby.L1Cache_Controller.M_W.Fwd_GETX |           0      0.00%      0.00% |           7      8.33%      8.33% |          12     14.29%     22.62% |          65     77.38%    100.00%
system.ruby.L1Cache_Controller.M_W.Fwd_GETX::total           84                      
system.ruby.L1Cache_Controller.M_W.Fwd_GETS |          58     10.98%     10.98% |         187     35.42%     46.40% |          76     14.39%     60.80% |         207     39.20%    100.00%
system.ruby.L1Cache_Controller.M_W.Fwd_GETS::total          528                      
system.ruby.L1Cache_Controller.M_W.Use_Timeout |       19945      3.51%      3.51% |       16820      2.96%      6.48% |      515982     90.89%     97.37% |       14954      2.63%    100.00%
system.ruby.L1Cache_Controller.M_W.Use_Timeout::total       567701                      
system.ruby.L1Cache_Controller.MM.Load   |     2233944      1.09%      1.09% |     1029367      0.50%      1.59% |   201642108     98.00%     99.58% |      859486      0.42%    100.00%
system.ruby.L1Cache_Controller.MM.Load::total    205764905                      
system.ruby.L1Cache_Controller.MM.Store  |     2344357      1.37%      1.37% |      948498      0.55%      1.93% |   166781125     97.52%     99.45% |      942478      0.55%    100.00%
system.ruby.L1Cache_Controller.MM.Store::total    171016458                      
system.ruby.L1Cache_Controller.MM.L1_Replacement |       35529      3.75%      3.75% |       20415      2.15%      5.90% |      868996     91.68%     97.58% |       22963      2.42%    100.00%
system.ruby.L1Cache_Controller.MM.L1_Replacement::total       947903                      
system.ruby.L1Cache_Controller.MM.Fwd_GETX |        2303     31.63%     31.63% |        2057     28.25%     59.87% |        1600     21.97%     81.85% |        1322     18.15%    100.00%
system.ruby.L1Cache_Controller.MM.Fwd_GETX::total         7282                      
system.ruby.L1Cache_Controller.MM.Fwd_GETS |        8438     41.86%     41.86% |        4658     23.11%     64.97% |        3358     16.66%     81.63% |        3704     18.37%    100.00%
system.ruby.L1Cache_Controller.MM.Fwd_GETS::total        20158                      
system.ruby.L1Cache_Controller.MM.Fwd_DMA |         189     30.88%     30.88% |         179     29.25%     60.13% |         132     21.57%     81.70% |         112     18.30%    100.00%
system.ruby.L1Cache_Controller.MM.Fwd_DMA::total          612                      
system.ruby.L1Cache_Controller.MM_W.Load |        5946      5.84%      5.84% |        4833      4.74%     10.58% |       89015     87.39%     97.98% |        2062      2.02%    100.00%
system.ruby.L1Cache_Controller.MM_W.Load::total       101856                      
system.ruby.L1Cache_Controller.MM_W.Store |      118247      9.95%      9.95% |       66049      5.56%     15.50% |      926631     77.95%     93.46% |       77760      6.54%    100.00%
system.ruby.L1Cache_Controller.MM_W.Store::total      1188687                      
system.ruby.L1Cache_Controller.MM_W.L1_Replacement |           6      7.89%      7.89% |           0      0.00%      7.89% |          70     92.11%    100.00% |           0      0.00%    100.00%
system.ruby.L1Cache_Controller.MM_W.L1_Replacement::total           76                      
system.ruby.L1Cache_Controller.MM_W.Fwd_GETX |           7     19.44%     19.44% |           4     11.11%     30.56% |           0      0.00%     30.56% |          25     69.44%    100.00%
system.ruby.L1Cache_Controller.MM_W.Fwd_GETX::total           36                      
system.ruby.L1Cache_Controller.MM_W.Fwd_GETS |         307     10.00%     10.00% |         826     26.91%     36.91% |         903     29.41%     66.32% |        1034     33.68%    100.00%
system.ruby.L1Cache_Controller.MM_W.Fwd_GETS::total         3070                      
system.ruby.L1Cache_Controller.MM_W.Use_Timeout |       36657      4.33%      4.33% |       21933      2.59%      6.92% |      765166     90.42%     97.35% |       22439      2.65%    100.00%
system.ruby.L1Cache_Controller.MM_W.Use_Timeout::total       846195                      
system.ruby.L1Cache_Controller.IM.Ack    |        8163     40.51%     40.51% |        4127     20.48%     61.00% |        2948     14.63%     75.63% |        4911     24.37%    100.00%
system.ruby.L1Cache_Controller.IM.Ack::total        20149                      
system.ruby.L1Cache_Controller.IM.Exclusive_Data |       24947      3.35%      3.35% |       14946      2.00%      5.35% |      691098     92.69%     98.04% |       14601      1.96%    100.00%
system.ruby.L1Cache_Controller.IM.Exclusive_Data::total       745592                      
system.ruby.L1Cache_Controller.SM.Inv    |           0      0.00%      0.00% |           0      0.00%      0.00% |           1    100.00%    100.00% |           0      0.00%    100.00%
system.ruby.L1Cache_Controller.SM.Inv::total            1                      
system.ruby.L1Cache_Controller.SM.Ack    |        7260     52.73%     52.73% |        1303      9.46%     62.20% |        2628     19.09%     81.29% |        2576     18.71%    100.00%
system.ruby.L1Cache_Controller.SM.Ack::total        13767                      
system.ruby.L1Cache_Controller.SM.Exclusive_Data |        9101     31.56%     31.56% |        5248     18.20%     49.76% |        8233     28.55%     78.31% |        6253     21.69%    100.00%
system.ruby.L1Cache_Controller.SM.Exclusive_Data::total        28835                      
system.ruby.L1Cache_Controller.OM.Own_GETX |          46     17.62%     17.62% |          98     37.55%     55.17% |          42     16.09%     71.26% |          75     28.74%    100.00%
system.ruby.L1Cache_Controller.OM.Own_GETX::total          261                      
system.ruby.L1Cache_Controller.OM.Ack    |         479     22.19%     22.19% |         689     31.91%     54.10% |         406     18.81%     72.90% |         585     27.10%    100.00%
system.ruby.L1Cache_Controller.OM.Ack::total         2159                      
system.ruby.L1Cache_Controller.OM.All_acks |       34094      4.40%      4.40% |       20292      2.62%      7.02% |      699373     90.28%     97.30% |       20929      2.70%    100.00%
system.ruby.L1Cache_Controller.OM.All_acks::total       774688                      
system.ruby.L1Cache_Controller.IS.Data   |      142331      1.35%      1.35% |       88411      0.84%      2.19% |    10214393     96.94%     99.13% |       91384      0.87%    100.00%
system.ruby.L1Cache_Controller.IS.Data::total     10536519                      
system.ruby.L1Cache_Controller.IS.Exclusive_Data |       22508      3.52%      3.52% |       18461      2.89%      6.41% |      581775     91.01%     97.42% |       16464      2.58%    100.00%
system.ruby.L1Cache_Controller.IS.Exclusive_Data::total       639208                      
system.ruby.L1Cache_Controller.SI.Load   |          10      5.00%      5.00% |           0      0.00%      5.00% |         190     95.00%    100.00% |           0      0.00%    100.00%
system.ruby.L1Cache_Controller.SI.Load::total          200                      
system.ruby.L1Cache_Controller.SI.Ifetch |           0      0.00%      0.00% |           0      0.00%      0.00% |           0      0.00%      0.00% |           6    100.00%    100.00%
system.ruby.L1Cache_Controller.SI.Ifetch::total            6                      
system.ruby.L1Cache_Controller.SI.Writeback_Ack |       87132      0.84%      0.84% |       74019      0.71%      1.55% |    10165770     97.77%     99.32% |       70380      0.68%    100.00%
system.ruby.L1Cache_Controller.SI.Writeback_Ack::total     10397301                      
system.ruby.L1Cache_Controller.SI.Writeback_Ack_Data |       43584     44.30%     44.30% |        6367      6.47%     50.77% |       38627     39.26%     90.04% |        9802      9.96%    100.00%
system.ruby.L1Cache_Controller.SI.Writeback_Ack_Data::total        98380                      
system.ruby.L1Cache_Controller.OI.Writeback_Ack_Data |         371     30.06%     30.06% |         342     27.71%     57.78% |         258     20.91%     78.69% |         263     21.31%    100.00%
system.ruby.L1Cache_Controller.OI.Writeback_Ack_Data::total         1234                      
system.ruby.L1Cache_Controller.MI.Load   |           6     12.24%     12.24% |           0      0.00%     12.24% |          26     53.06%     65.31% |          17     34.69%    100.00%
system.ruby.L1Cache_Controller.MI.Load::total           49                      
system.ruby.L1Cache_Controller.MI.Writeback_Ack_Data |       41548      3.04%      3.04% |       23645      1.73%      4.77% |     1275746     93.26%     98.03% |       26976      1.97%    100.00%
system.ruby.L1Cache_Controller.MI.Writeback_Ack_Data::total      1367915                      
system.ruby.L2Cache_Controller.L1_GETS       11176683      0.00%      0.00%
system.ruby.L2Cache_Controller.L1_GETX         774701      0.00%      0.00%
system.ruby.L2Cache_Controller.L1_PUTO           1234      0.00%      0.00%
system.ruby.L2Cache_Controller.L1_PUTX        1367915      0.00%      0.00%
system.ruby.L2Cache_Controller.L1_PUTS_only     10277587      0.00%      0.00%
system.ruby.L2Cache_Controller.L1_PUTS         218100      0.00%      0.00%
system.ruby.L2Cache_Controller.Fwd_GETX           128      0.00%      0.00%
system.ruby.L2Cache_Controller.Fwd_DMA           1352      0.00%      0.00%
system.ruby.L2Cache_Controller.IntAck               3      0.00%      0.00%
system.ruby.L2Cache_Controller.All_Acks         47421      0.00%      0.00%
system.ruby.L2Cache_Controller.Data            161477      0.00%      0.00%
system.ruby.L2Cache_Controller.Data_Exclusive           61      0.00%      0.00%
system.ruby.L2Cache_Controller.L1_WBCLEANDATA        98380      0.00%      0.00%
system.ruby.L2Cache_Controller.L1_WBDIRTYDATA      1369149      0.00%      0.00%
system.ruby.L2Cache_Controller.Writeback_Ack        36428      0.00%      0.00%
system.ruby.L2Cache_Controller.Unblock       20933820      0.00%      0.00%
system.ruby.L2Cache_Controller.Exclusive_Unblock      1413896      0.00%      0.00%
system.ruby.L2Cache_Controller.DmaAck             612      0.00%      0.00%
system.ruby.L2Cache_Controller.L2_Replacement       124426      0.00%      0.00%
system.ruby.L2Cache_Controller.NP.L1_GETS       114059      0.00%      0.00%
system.ruby.L2Cache_Controller.NP.L1_GETX        25055      0.00%      0.00%
system.ruby.L2Cache_Controller.ILS.L1_GETS         3828      0.00%      0.00%
system.ruby.L2Cache_Controller.ILS.L1_GETX        18629      0.00%      0.00%
system.ruby.L2Cache_Controller.ILS.L1_PUTS_only        94656      0.00%      0.00%
system.ruby.L2Cache_Controller.ILS.L1_PUTS         3724      0.00%      0.00%
system.ruby.L2Cache_Controller.ILX.L1_GETS        37140      0.00%      0.00%
system.ruby.L2Cache_Controller.ILX.L1_GETX         8721      0.00%      0.00%
system.ruby.L2Cache_Controller.ILX.L1_PUTX      1367915      0.00%      0.00%
system.ruby.L2Cache_Controller.ILX.Fwd_DMA          612      0.00%      0.00%
system.ruby.L2Cache_Controller.ILOX.L1_GETS         7491      0.00%      0.00%
system.ruby.L2Cache_Controller.ILOX.L1_GETX         1613      0.00%      0.00%
system.ruby.L2Cache_Controller.ILOX.L1_PUTO          625      0.00%      0.00%
system.ruby.L2Cache_Controller.ILOX.Fwd_GETX           61      0.00%      0.00%
system.ruby.L2Cache_Controller.ILOSX.L1_GETS         7726      0.00%      0.00%
system.ruby.L2Cache_Controller.ILOSX.L1_GETX        14148      0.00%      0.00%
system.ruby.L2Cache_Controller.ILOSX.L1_PUTO          609      0.00%      0.00%
system.ruby.L2Cache_Controller.ILOSX.L1_PUTS_only         9803      0.00%      0.00%
system.ruby.L2Cache_Controller.ILOSX.L1_PUTS         2457      0.00%      0.00%
system.ruby.L2Cache_Controller.S.L1_GETS     10174033      0.00%      0.00%
system.ruby.L2Cache_Controller.S.L1_GETX         2146      0.00%      0.00%
system.ruby.L2Cache_Controller.S.L2_Replacement        84992      0.00%      0.00%
system.ruby.L2Cache_Controller.OLSX.L1_GETS         9705      0.00%      0.00%
system.ruby.L2Cache_Controller.OLSX.L1_GETX          190      0.00%      0.00%
system.ruby.L2Cache_Controller.OLSX.L1_PUTS_only          327      0.00%      0.00%
system.ruby.L2Cache_Controller.OLSX.L1_PUTS         9586      0.00%      0.00%
system.ruby.L2Cache_Controller.OLSX.Fwd_GETX            3      0.00%      0.00%
system.ruby.L2Cache_Controller.OLSX.L2_Replacement          128      0.00%      0.00%
system.ruby.L2Cache_Controller.SLS.L1_GETS       202695      0.00%      0.00%
system.ruby.L2Cache_Controller.SLS.L1_GETX         1588      0.00%      0.00%
system.ruby.L2Cache_Controller.SLS.L1_PUTS_only     10172796      0.00%      0.00%
system.ruby.L2Cache_Controller.SLS.L1_PUTS       202332      0.00%      0.00%
system.ruby.L2Cache_Controller.SLS.L2_Replacement         3006      0.00%      0.00%
system.ruby.L2Cache_Controller.M.L1_GETS       619050      0.00%      0.00%
system.ruby.L2Cache_Controller.M.L1_GETX       702598      0.00%      0.00%
system.ruby.L2Cache_Controller.M.Fwd_GETX           64      0.00%      0.00%
system.ruby.L2Cache_Controller.M.Fwd_DMA          740      0.00%      0.00%
system.ruby.L2Cache_Controller.M.L2_Replacement        36300      0.00%      0.00%
system.ruby.L2Cache_Controller.IFGX.Data_Exclusive           61      0.00%      0.00%
system.ruby.L2Cache_Controller.OLSF.IntAck            3      0.00%      0.00%
system.ruby.L2Cache_Controller.OLSF.All_Acks            3      0.00%      0.00%
system.ruby.L2Cache_Controller.ILOXW.L1_WBDIRTYDATA          625      0.00%      0.00%
system.ruby.L2Cache_Controller.ILOXW.Unblock         9803      0.00%      0.00%
system.ruby.L2Cache_Controller.ILOSXW.L1_PUTS_only            4      0.00%      0.00%
system.ruby.L2Cache_Controller.ILOSXW.L1_WBDIRTYDATA          609      0.00%      0.00%
system.ruby.L2Cache_Controller.ILOSXW.Unblock         2457      0.00%      0.00%
system.ruby.L2Cache_Controller.SLSW.L1_GETS            1      0.00%      0.00%
system.ruby.L2Cache_Controller.SLSW.Unblock       202332      0.00%      0.00%
system.ruby.L2Cache_Controller.ILSW.L1_WBCLEANDATA         3724      0.00%      0.00%
system.ruby.L2Cache_Controller.IW.L1_WBCLEANDATA        94656      0.00%      0.00%
system.ruby.L2Cache_Controller.SW.Unblock     10172796      0.00%      0.00%
system.ruby.L2Cache_Controller.OXW.Unblock          327      0.00%      0.00%
system.ruby.L2Cache_Controller.OLSXW.Unblock         9586      0.00%      0.00%
system.ruby.L2Cache_Controller.ILXW.L1_GETS            2      0.00%      0.00%
system.ruby.L2Cache_Controller.ILXW.L1_WBDIRTYDATA      1367915      0.00%      0.00%
system.ruby.L2Cache_Controller.IFLS.L1_GETS            6      0.00%      0.00%
system.ruby.L2Cache_Controller.IFLS.Unblock         3828      0.00%      0.00%
system.ruby.L2Cache_Controller.IFLOX.Unblock         7491      0.00%      0.00%
system.ruby.L2Cache_Controller.IFLOX.Exclusive_Unblock          190      0.00%      0.00%
system.ruby.L2Cache_Controller.IFLOXX.L1_GETS          197      0.00%      0.00%
system.ruby.L2Cache_Controller.IFLOXX.L1_GETX           10      0.00%      0.00%
system.ruby.L2Cache_Controller.IFLOXX.Unblock        16982      0.00%      0.00%
system.ruby.L2Cache_Controller.IFLOXX.Exclusive_Unblock        30492      0.00%      0.00%
system.ruby.L2Cache_Controller.IFLOSX.Unblock         7726      0.00%      0.00%
system.ruby.L2Cache_Controller.IFLXO.L1_GETS          144      0.00%      0.00%
system.ruby.L2Cache_Controller.IFLXO.L1_GETX            3      0.00%      0.00%
system.ruby.L2Cache_Controller.IFLXO.Exclusive_Unblock        14148      0.00%      0.00%
system.ruby.L2Cache_Controller.IGS.L1_GETS          604      0.00%      0.00%
system.ruby.L2Cache_Controller.IGS.Data        114059      0.00%      0.00%
system.ruby.L2Cache_Controller.IGS.Unblock       114059      0.00%      0.00%
system.ruby.L2Cache_Controller.IGM.Data         27201      0.00%      0.00%
system.ruby.L2Cache_Controller.IGMLS.Data        20217      0.00%      0.00%
system.ruby.L2Cache_Controller.IGMO.All_Acks        47418      0.00%      0.00%
system.ruby.L2Cache_Controller.IGMO.Exclusive_Unblock        47418      0.00%      0.00%
system.ruby.L2Cache_Controller.MM.Exclusive_Unblock       702598      0.00%      0.00%
system.ruby.L2Cache_Controller.SS.L1_GETS            2      0.00%      0.00%
system.ruby.L2Cache_Controller.SS.Unblock     10174033      0.00%      0.00%
system.ruby.L2Cache_Controller.OO.Exclusive_Unblock       619050      0.00%      0.00%
system.ruby.L2Cache_Controller.OLSXS.Unblock         9705      0.00%      0.00%
system.ruby.L2Cache_Controller.SLSS.L1_PUTS_only            1      0.00%      0.00%
system.ruby.L2Cache_Controller.SLSS.L1_PUTS            1      0.00%      0.00%
system.ruby.L2Cache_Controller.SLSS.Unblock       202695      0.00%      0.00%
system.ruby.L2Cache_Controller.MI.Writeback_Ack        36300      0.00%      0.00%
system.ruby.L2Cache_Controller.OLSI.Writeback_Ack          128      0.00%      0.00%
system.ruby.L2Cache_Controller.ILXD.DmaAck          612      0.00%      0.00%

---------- End Simulation Statistics   ----------
