
---------- Begin Simulation Statistics ----------
sim_seconds                                  0.963300                       # Number of seconds simulated
sim_ticks                                963300041000                       # Number of ticks simulated
final_tick                               54490400364501                       # Number of ticks from beginning of simulation (restored from checkpoints and never reset)
sim_freq                                 1000000000000                       # Frequency of simulated ticks
host_inst_rate                                  90882                       # Simulator instruction rate (inst/s)
host_op_rate                                   150575                       # Simulator op (including micro ops) rate (op/s)
host_tick_rate                              312389702                       # Simulator tick rate (ticks/s)
host_mem_usage                                1873772                       # Number of bytes of host memory used
host_seconds                                  3083.65                       # Real time elapsed on the host
sim_insts                                   280246982                       # Number of instructions simulated
sim_ops                                     464320965                       # Number of ops (including micro ops) simulated
system.voltage_domain.voltage                       1                       # Voltage in Volts
system.clk_domain.clock                          1000                       # Clock period in ticks
system.mem_ctrls.bytes_read::ruby.dir_cntrl0    287392128                       # Number of bytes read from this memory
system.mem_ctrls.bytes_read::total          287392128                       # Number of bytes read from this memory
system.mem_ctrls.bytes_written::ruby.dir_cntrl0    142029376                       # Number of bytes written to this memory
system.mem_ctrls.bytes_written::total       142029376                       # Number of bytes written to this memory
system.mem_ctrls.num_reads::ruby.dir_cntrl0      4490502                       # Number of read requests responded to by this memory
system.mem_ctrls.num_reads::total             4490502                       # Number of read requests responded to by this memory
system.mem_ctrls.num_writes::ruby.dir_cntrl0      2219209                       # Number of write requests responded to by this memory
system.mem_ctrls.num_writes::total            2219209                       # Number of write requests responded to by this memory
system.mem_ctrls.bw_read::ruby.dir_cntrl0    298341239                       # Total read bandwidth from this memory (bytes/s)
system.mem_ctrls.bw_read::total             298341239                       # Total read bandwidth from this memory (bytes/s)
system.mem_ctrls.bw_write::ruby.dir_cntrl0    147440434                       # Write bandwidth from this memory (bytes/s)
system.mem_ctrls.bw_write::total            147440434                       # Write bandwidth from this memory (bytes/s)
system.mem_ctrls.bw_total::ruby.dir_cntrl0    445781673                       # Total bandwidth to/from this memory (bytes/s)
system.mem_ctrls.bw_total::total            445781673                       # Total bandwidth to/from this memory (bytes/s)
system.mem_ctrls.readReqs                     4490502                       # Number of read requests accepted
system.mem_ctrls.writeReqs                    2219209                       # Number of write requests accepted
system.mem_ctrls.readBursts                   4490502                       # Number of DRAM read bursts, including those serviced by the write queue
system.mem_ctrls.writeBursts                  2219209                       # Number of DRAM write bursts, including those merged in the write queue
system.mem_ctrls.bytesReadDRAM              287321536                       # Total number of bytes read from DRAM
system.mem_ctrls.bytesReadWrQ                   70592                       # Total number of bytes read from write queue
system.mem_ctrls.bytesWritten               142029312                       # Total number of bytes written to DRAM
system.mem_ctrls.bytesReadSys               287392128                       # Total read bytes from the system interface side
system.mem_ctrls.bytesWrittenSys            142029376                       # Total written bytes from the system interface side
system.mem_ctrls.servicedByWrQ                   1103                       # Number of DRAM read bursts serviced by the write queue
system.mem_ctrls.mergedWrBursts                     4                       # Number of DRAM write bursts merged with an existing one
system.mem_ctrls.neitherReadNorWriteReqs            0                       # Number of requests that are neither read nor write
system.mem_ctrls.perBankRdBursts::0            277289                       # Per bank write bursts
system.mem_ctrls.perBankRdBursts::1            266562                       # Per bank write bursts
system.mem_ctrls.perBankRdBursts::2            267303                       # Per bank write bursts
system.mem_ctrls.perBankRdBursts::3            268298                       # Per bank write bursts
system.mem_ctrls.perBankRdBursts::4            294833                       # Per bank write bursts
system.mem_ctrls.perBankRdBursts::5            300190                       # Per bank write bursts
system.mem_ctrls.perBankRdBursts::6            281369                       # Per bank write bursts
system.mem_ctrls.perBankRdBursts::7            271553                       # Per bank write bursts
system.mem_ctrls.perBankRdBursts::8            292935                       # Per bank write bursts
system.mem_ctrls.perBankRdBursts::9            279428                       # Per bank write bursts
system.mem_ctrls.perBankRdBursts::10           280835                       # Per bank write bursts
system.mem_ctrls.perBankRdBursts::11           282499                       # Per bank write bursts
system.mem_ctrls.perBankRdBursts::12           279950                       # Per bank write bursts
system.mem_ctrls.perBankRdBursts::13           283876                       # Per bank write bursts
system.mem_ctrls.perBankRdBursts::14           280982                       # Per bank write bursts
system.mem_ctrls.perBankRdBursts::15           281497                       # Per bank write bursts
system.mem_ctrls.perBankWrBursts::0            136998                       # Per bank write bursts
system.mem_ctrls.perBankWrBursts::1            139496                       # Per bank write bursts
system.mem_ctrls.perBankWrBursts::2            137429                       # Per bank write bursts
system.mem_ctrls.perBankWrBursts::3            136618                       # Per bank write bursts
system.mem_ctrls.perBankWrBursts::4            139670                       # Per bank write bursts
system.mem_ctrls.perBankWrBursts::5            141940                       # Per bank write bursts
system.mem_ctrls.perBankWrBursts::6            144446                       # Per bank write bursts
system.mem_ctrls.perBankWrBursts::7            137570                       # Per bank write bursts
system.mem_ctrls.perBankWrBursts::8            142988                       # Per bank write bursts
system.mem_ctrls.perBankWrBursts::9            137720                       # Per bank write bursts
system.mem_ctrls.perBankWrBursts::10           135968                       # Per bank write bursts
system.mem_ctrls.perBankWrBursts::11           137995                       # Per bank write bursts
system.mem_ctrls.perBankWrBursts::12           136903                       # Per bank write bursts
system.mem_ctrls.perBankWrBursts::13           140236                       # Per bank write bursts
system.mem_ctrls.perBankWrBursts::14           136669                       # Per bank write bursts
system.mem_ctrls.perBankWrBursts::15           136562                       # Per bank write bursts
system.mem_ctrls.numRdRetry                         0                       # Number of times read queue was full causing retry
system.mem_ctrls.numWrRetry                         0                       # Number of times write queue was full causing retry
system.mem_ctrls.totGap                  963300182000                       # Total gap between requests
system.mem_ctrls.readPktSize::0                     0                       # Read request sizes (log2)
system.mem_ctrls.readPktSize::1                     0                       # Read request sizes (log2)
system.mem_ctrls.readPktSize::2                     0                       # Read request sizes (log2)
system.mem_ctrls.readPktSize::3                     0                       # Read request sizes (log2)
system.mem_ctrls.readPktSize::4                     0                       # Read request sizes (log2)
system.mem_ctrls.readPktSize::5                     0                       # Read request sizes (log2)
system.mem_ctrls.readPktSize::6               4490502                       # Read request sizes (log2)
system.mem_ctrls.writePktSize::0                    0                       # Write request sizes (log2)
system.mem_ctrls.writePktSize::1                    0                       # Write request sizes (log2)
system.mem_ctrls.writePktSize::2                    0                       # Write request sizes (log2)
system.mem_ctrls.writePktSize::3                    0                       # Write request sizes (log2)
system.mem_ctrls.writePktSize::4                    0                       # Write request sizes (log2)
system.mem_ctrls.writePktSize::5                    0                       # Write request sizes (log2)
system.mem_ctrls.writePktSize::6              2219209                       # Write request sizes (log2)
system.mem_ctrls.rdQLenPdf::0                 4446562                       # What read queue length does an incoming req see
system.mem_ctrls.rdQLenPdf::1                   42591                       # What read queue length does an incoming req see
system.mem_ctrls.rdQLenPdf::2                     246                       # What read queue length does an incoming req see
system.mem_ctrls.rdQLenPdf::3                       0                       # What read queue length does an incoming req see
system.mem_ctrls.rdQLenPdf::4                       0                       # What read queue length does an incoming req see
system.mem_ctrls.rdQLenPdf::5                       0                       # What read queue length does an incoming req see
system.mem_ctrls.rdQLenPdf::6                       0                       # What read queue length does an incoming req see
system.mem_ctrls.rdQLenPdf::7                       0                       # What read queue length does an incoming req see
system.mem_ctrls.rdQLenPdf::8                       0                       # What read queue length does an incoming req see
system.mem_ctrls.rdQLenPdf::9                       0                       # What read queue length does an incoming req see
system.mem_ctrls.rdQLenPdf::10                      0                       # What read queue length does an incoming req see
system.mem_ctrls.rdQLenPdf::11                      0                       # What read queue length does an incoming req see
system.mem_ctrls.rdQLenPdf::12                      0                       # What read queue length does an incoming req see
system.mem_ctrls.rdQLenPdf::13                      0                       # What read queue length does an incoming req see
system.mem_ctrls.rdQLenPdf::14                      0                       # What read queue length does an incoming req see
system.mem_ctrls.rdQLenPdf::15                      0                       # What read queue length does an incoming req see
system.mem_ctrls.rdQLenPdf::16                      0                       # What read queue length does an incoming req see
system.mem_ctrls.rdQLenPdf::17                      0                       # What read queue length does an incoming req see
system.mem_ctrls.rdQLenPdf::18                      0                       # What read queue length does an incoming req see
system.mem_ctrls.rdQLenPdf::19                      0                       # What read queue length does an incoming req see
system.mem_ctrls.rdQLenPdf::20                      0                       # What read queue length does an incoming req see
system.mem_ctrls.rdQLenPdf::21                      0                       # What read queue length does an incoming req see
system.mem_ctrls.rdQLenPdf::22                      0                       # What read queue length does an incoming req see
system.mem_ctrls.rdQLenPdf::23                      0                       # What read queue length does an incoming req see
system.mem_ctrls.rdQLenPdf::24                      0                       # What read queue length does an incoming req see
system.mem_ctrls.rdQLenPdf::25                      0                       # What read queue length does an incoming req see
system.mem_ctrls.rdQLenPdf::26                      0                       # What read queue length does an incoming req see
system.mem_ctrls.rdQLenPdf::27                      0                       # What read queue length does an incoming req see
system.mem_ctrls.rdQLenPdf::28                      0                       # What read queue length does an incoming req see
system.mem_ctrls.rdQLenPdf::29                      0                       # What read queue length does an incoming req see
system.mem_ctrls.rdQLenPdf::30                      0                       # What read queue length does an incoming req see
system.mem_ctrls.rdQLenPdf::31                      0                       # What read queue length does an incoming req see
system.mem_ctrls.wrQLenPdf::0                       0                       # What write queue length does an incoming req see
system.mem_ctrls.wrQLenPdf::1                       0                       # What write queue length does an incoming req see
system.mem_ctrls.wrQLenPdf::2                       0                       # What write queue length does an incoming req see
system.mem_ctrls.wrQLenPdf::3                       0                       # What write queue length does an incoming req see
system.mem_ctrls.wrQLenPdf::4                       0                       # What write queue length does an incoming req see
system.mem_ctrls.wrQLenPdf::5                       0                       # What write queue length does an incoming req see
system.mem_ctrls.wrQLenPdf::6                       0                       # What write queue length does an incoming req see
system.mem_ctrls.wrQLenPdf::7                       0                       # What write queue length does an incoming req see
system.mem_ctrls.wrQLenPdf::8                       0                       # What write queue length does an incoming req see
system.mem_ctrls.wrQLenPdf::9                       0                       # What write queue length does an incoming req see
system.mem_ctrls.wrQLenPdf::10                      0                       # What write queue length does an incoming req see
system.mem_ctrls.wrQLenPdf::11                      0                       # What write queue length does an incoming req see
system.mem_ctrls.wrQLenPdf::12                      0                       # What write queue length does an incoming req see
system.mem_ctrls.wrQLenPdf::13                      0                       # What write queue length does an incoming req see
system.mem_ctrls.wrQLenPdf::14                      0                       # What write queue length does an incoming req see
system.mem_ctrls.wrQLenPdf::15                   3363                       # What write queue length does an incoming req see
system.mem_ctrls.wrQLenPdf::16                   3806                       # What write queue length does an incoming req see
system.mem_ctrls.wrQLenPdf::17                 137204                       # What write queue length does an incoming req see
system.mem_ctrls.wrQLenPdf::18                 138359                       # What write queue length does an incoming req see
system.mem_ctrls.wrQLenPdf::19                 138339                       # What write queue length does an incoming req see
system.mem_ctrls.wrQLenPdf::20                 138375                       # What write queue length does an incoming req see
system.mem_ctrls.wrQLenPdf::21                 138366                       # What write queue length does an incoming req see
system.mem_ctrls.wrQLenPdf::22                 138334                       # What write queue length does an incoming req see
system.mem_ctrls.wrQLenPdf::23                 138354                       # What write queue length does an incoming req see
system.mem_ctrls.wrQLenPdf::24                 138346                       # What write queue length does an incoming req see
system.mem_ctrls.wrQLenPdf::25                 138327                       # What write queue length does an incoming req see
system.mem_ctrls.wrQLenPdf::26                 138331                       # What write queue length does an incoming req see
system.mem_ctrls.wrQLenPdf::27                 138302                       # What write queue length does an incoming req see
system.mem_ctrls.wrQLenPdf::28                 138333                       # What write queue length does an incoming req see
system.mem_ctrls.wrQLenPdf::29                 138278                       # What write queue length does an incoming req see
system.mem_ctrls.wrQLenPdf::30                 138268                       # What write queue length does an incoming req see
system.mem_ctrls.wrQLenPdf::31                 138246                       # What write queue length does an incoming req see
system.mem_ctrls.wrQLenPdf::32                 138218                       # What write queue length does an incoming req see
system.mem_ctrls.wrQLenPdf::33                     20                       # What write queue length does an incoming req see
system.mem_ctrls.wrQLenPdf::34                      6                       # What write queue length does an incoming req see
system.mem_ctrls.wrQLenPdf::35                      6                       # What write queue length does an incoming req see
system.mem_ctrls.wrQLenPdf::36                      5                       # What write queue length does an incoming req see
system.mem_ctrls.wrQLenPdf::37                      4                       # What write queue length does an incoming req see
system.mem_ctrls.wrQLenPdf::38                      3                       # What write queue length does an incoming req see
system.mem_ctrls.wrQLenPdf::39                      4                       # What write queue length does an incoming req see
system.mem_ctrls.wrQLenPdf::40                      4                       # What write queue length does an incoming req see
system.mem_ctrls.wrQLenPdf::41                      4                       # What write queue length does an incoming req see
system.mem_ctrls.wrQLenPdf::42                      0                       # What write queue length does an incoming req see
system.mem_ctrls.wrQLenPdf::43                      0                       # What write queue length does an incoming req see
system.mem_ctrls.wrQLenPdf::44                      0                       # What write queue length does an incoming req see
system.mem_ctrls.wrQLenPdf::45                      0                       # What write queue length does an incoming req see
system.mem_ctrls.wrQLenPdf::46                      0                       # What write queue length does an incoming req see
system.mem_ctrls.wrQLenPdf::47                      0                       # What write queue length does an incoming req see
system.mem_ctrls.wrQLenPdf::48                      0                       # What write queue length does an incoming req see
system.mem_ctrls.wrQLenPdf::49                      0                       # What write queue length does an incoming req see
system.mem_ctrls.wrQLenPdf::50                      0                       # What write queue length does an incoming req see
system.mem_ctrls.wrQLenPdf::51                      0                       # What write queue length does an incoming req see
system.mem_ctrls.wrQLenPdf::52                      0                       # What write queue length does an incoming req see
system.mem_ctrls.wrQLenPdf::53                      0                       # What write queue length does an incoming req see
system.mem_ctrls.wrQLenPdf::54                      0                       # What write queue length does an incoming req see
system.mem_ctrls.wrQLenPdf::55                      0                       # What write queue length does an incoming req see
system.mem_ctrls.wrQLenPdf::56                      0                       # What write queue length does an incoming req see
system.mem_ctrls.wrQLenPdf::57                      0                       # What write queue length does an incoming req see
system.mem_ctrls.wrQLenPdf::58                      0                       # What write queue length does an incoming req see
system.mem_ctrls.wrQLenPdf::59                      0                       # What write queue length does an incoming req see
system.mem_ctrls.wrQLenPdf::60                      0                       # What write queue length does an incoming req see
system.mem_ctrls.wrQLenPdf::61                      0                       # What write queue length does an incoming req see
system.mem_ctrls.wrQLenPdf::62                      0                       # What write queue length does an incoming req see
system.mem_ctrls.wrQLenPdf::63                      0                       # What write queue length does an incoming req see
system.mem_ctrls.bytesPerActivate::samples      6001968                       # Bytes accessed per row activation
system.mem_ctrls.bytesPerActivate::mean     71.534947                       # Bytes accessed per row activation
system.mem_ctrls.bytesPerActivate::gmean    68.563856                       # Bytes accessed per row activation
system.mem_ctrls.bytesPerActivate::stdev    36.702309                       # Bytes accessed per row activation
system.mem_ctrls.bytesPerActivate::0-127      5473435     91.19%     91.19% # Bytes accessed per row activation
system.mem_ctrls.bytesPerActivate::128-255       498214      8.30%     99.49% # Bytes accessed per row activation
system.mem_ctrls.bytesPerActivate::256-383        17395      0.29%     99.78% # Bytes accessed per row activation
system.mem_ctrls.bytesPerActivate::384-511         6376      0.11%     99.89% # Bytes accessed per row activation
system.mem_ctrls.bytesPerActivate::512-639         1288      0.02%     99.91% # Bytes accessed per row activation
system.mem_ctrls.bytesPerActivate::640-767          832      0.01%     99.93% # Bytes accessed per row activation
system.mem_ctrls.bytesPerActivate::768-895          575      0.01%     99.94% # Bytes accessed per row activation
system.mem_ctrls.bytesPerActivate::896-1023          455      0.01%     99.94% # Bytes accessed per row activation
system.mem_ctrls.bytesPerActivate::1024-1151         3398      0.06%    100.00% # Bytes accessed per row activation
system.mem_ctrls.bytesPerActivate::total      6001968                       # Bytes accessed per row activation
system.mem_ctrls.rdPerTurnAround::samples       138205                       # Reads before turning the bus around for writes
system.mem_ctrls.rdPerTurnAround::mean      32.483651                       # Reads before turning the bus around for writes
system.mem_ctrls.rdPerTurnAround::stdev      9.235789                       # Reads before turning the bus around for writes
system.mem_ctrls.rdPerTurnAround::0-15            136      0.10%      0.10% # Reads before turning the bus around for writes
system.mem_ctrls.rdPerTurnAround::16-31         67640     48.94%     49.04% # Reads before turning the bus around for writes
system.mem_ctrls.rdPerTurnAround::32-47         68384     49.48%     98.52% # Reads before turning the bus around for writes
system.mem_ctrls.rdPerTurnAround::48-63          1495      1.08%     99.60% # Reads before turning the bus around for writes
system.mem_ctrls.rdPerTurnAround::64-79            31      0.02%     99.62% # Reads before turning the bus around for writes
system.mem_ctrls.rdPerTurnAround::80-95            56      0.04%     99.66% # Reads before turning the bus around for writes
system.mem_ctrls.rdPerTurnAround::96-111           64      0.05%     99.71% # Reads before turning the bus around for writes
system.mem_ctrls.rdPerTurnAround::112-127           99      0.07%     99.78% # Reads before turning the bus around for writes
system.mem_ctrls.rdPerTurnAround::128-143           96      0.07%     99.85% # Reads before turning the bus around for writes
system.mem_ctrls.rdPerTurnAround::144-159           82      0.06%     99.91% # Reads before turning the bus around for writes
system.mem_ctrls.rdPerTurnAround::160-175           62      0.04%     99.96% # Reads before turning the bus around for writes
system.mem_ctrls.rdPerTurnAround::176-191           27      0.02%     99.98% # Reads before turning the bus around for writes
system.mem_ctrls.rdPerTurnAround::192-207           10      0.01%     99.98% # Reads before turning the bus around for writes
system.mem_ctrls.rdPerTurnAround::208-223           11      0.01%     99.99% # Reads before turning the bus around for writes
system.mem_ctrls.rdPerTurnAround::224-239            1      0.00%     99.99% # Reads before turning the bus around for writes
system.mem_ctrls.rdPerTurnAround::240-255            4      0.00%     99.99% # Reads before turning the bus around for writes
system.mem_ctrls.rdPerTurnAround::256-271            2      0.00%    100.00% # Reads before turning the bus around for writes
system.mem_ctrls.rdPerTurnAround::400-415            1      0.00%    100.00% # Reads before turning the bus around for writes
system.mem_ctrls.rdPerTurnAround::432-447            1      0.00%    100.00% # Reads before turning the bus around for writes
system.mem_ctrls.rdPerTurnAround::448-463            3      0.00%    100.00% # Reads before turning the bus around for writes
system.mem_ctrls.rdPerTurnAround::total        138205                       # Reads before turning the bus around for writes
system.mem_ctrls.wrPerTurnAround::samples       138205                       # Writes before turning the bus around for reads
system.mem_ctrls.wrPerTurnAround::mean      16.057364                       # Writes before turning the bus around for reads
system.mem_ctrls.wrPerTurnAround::gmean     16.053281                       # Writes before turning the bus around for reads
system.mem_ctrls.wrPerTurnAround::stdev      0.395987                       # Writes before turning the bus around for reads
system.mem_ctrls.wrPerTurnAround::16           134448     97.28%     97.28% # Writes before turning the bus around for reads
system.mem_ctrls.wrPerTurnAround::17              241      0.17%     97.46% # Writes before turning the bus around for reads
system.mem_ctrls.wrPerTurnAround::18             3351      2.42%     99.88% # Writes before turning the bus around for reads
system.mem_ctrls.wrPerTurnAround::19               66      0.05%     99.93% # Writes before turning the bus around for reads
system.mem_ctrls.wrPerTurnAround::20                5      0.00%     99.93% # Writes before turning the bus around for reads
system.mem_ctrls.wrPerTurnAround::21               25      0.02%     99.95% # Writes before turning the bus around for reads
system.mem_ctrls.wrPerTurnAround::22               12      0.01%     99.96% # Writes before turning the bus around for reads
system.mem_ctrls.wrPerTurnAround::23                5      0.00%     99.96% # Writes before turning the bus around for reads
system.mem_ctrls.wrPerTurnAround::24               28      0.02%     99.98% # Writes before turning the bus around for reads
system.mem_ctrls.wrPerTurnAround::25                4      0.00%     99.99% # Writes before turning the bus around for reads
system.mem_ctrls.wrPerTurnAround::26                2      0.00%     99.99% # Writes before turning the bus around for reads
system.mem_ctrls.wrPerTurnAround::28               14      0.01%    100.00% # Writes before turning the bus around for reads
system.mem_ctrls.wrPerTurnAround::29                1      0.00%    100.00% # Writes before turning the bus around for reads
system.mem_ctrls.wrPerTurnAround::30                1      0.00%    100.00% # Writes before turning the bus around for reads
system.mem_ctrls.wrPerTurnAround::44                1      0.00%    100.00% # Writes before turning the bus around for reads
system.mem_ctrls.wrPerTurnAround::48                1      0.00%    100.00% # Writes before turning the bus around for reads
system.mem_ctrls.wrPerTurnAround::total        138205                       # Writes before turning the bus around for reads
system.mem_ctrls.totQLat                 115503445868                       # Total ticks spent queuing
system.mem_ctrls.totMemAccLat            199679677118                       # Total ticks spent from burst creation until serviced by the DRAM
system.mem_ctrls.totBusLat                22446995000                       # Total ticks spent in databus transfers
system.mem_ctrls.avgQLat                     25728.04                       # Average queueing delay per DRAM burst
system.mem_ctrls.avgBusLat                    5000.00                       # Average bus latency per DRAM burst
system.mem_ctrls.avgMemAccLat                44478.04                       # Average memory access latency per DRAM burst
system.mem_ctrls.avgRdBW                       298.27                       # Average DRAM read bandwidth in MiByte/s
system.mem_ctrls.avgWrBW                       147.44                       # Average achieved write bandwidth in MiByte/s
system.mem_ctrls.avgRdBWSys                    298.34                       # Average system read bandwidth in MiByte/s
system.mem_ctrls.avgWrBWSys                    147.44                       # Average system write bandwidth in MiByte/s
system.mem_ctrls.peakBW                      12800.00                       # Theoretical peak bandwidth in MiByte/s
system.mem_ctrls.busUtil                         3.48                       # Data bus utilization in percentage
system.mem_ctrls.busUtilRead                     2.33                       # Data bus utilization in percentage for reads
system.mem_ctrls.busUtilWrite                    1.15                       # Data bus utilization in percentage for writes
system.mem_ctrls.avgRdQLen                       1.00                       # Average read queue length when enqueuing
system.mem_ctrls.avgWrQLen                      25.61                       # Average write queue length when enqueuing
system.mem_ctrls.readRowHits                   608340                       # Number of row buffer hits during reads
system.mem_ctrls.writeRowHits                   98293                       # Number of row buffer hits during writes
system.mem_ctrls.readRowHitRate                 13.55                       # Row buffer hit rate for reads
system.mem_ctrls.writeRowHitRate                 4.43                       # Row buffer hit rate for writes
system.mem_ctrls.avgGap                     143568.06                       # Average gap between requests
system.mem_ctrls.pageHitRate                    10.53                       # Row buffer hit rate, read and write combined
system.mem_ctrls_0.actEnergy              22565050200                       # Energy for activate commands per rank (pJ)
system.mem_ctrls_0.preEnergy              12312279375                       # Energy for precharge commands per rank (pJ)
system.mem_ctrls_0.readEnergy             17485096200                       # Energy for read commands per rank (pJ)
system.mem_ctrls_0.writeEnergy             7229360160                       # Energy for write commands per rank (pJ)
system.mem_ctrls_0.refreshEnergy          63454048320                       # Energy for refresh commands per rank (pJ)
system.mem_ctrls_0.actBackEnergy         619161759855                       # Energy for active background per rank (pJ)
system.mem_ctrls_0.preBackEnergy          39779396250                       # Energy for precharge background per rank (pJ)
system.mem_ctrls_0.totalEnergy           781986990360                       # Total energy per rank (pJ)
system.mem_ctrls_0.averagePower            804.922248                       # Core power per rank (mW)
system.mem_ctrls_0.memoryStateTime::IDLE  59448429001                       # Time in different power states
system.mem_ctrls_0.memoryStateTime::REF   32166680000                       # Time in different power states
system.mem_ctrls_0.memoryStateTime::PRE_PDN            0                       # Time in different power states
system.mem_ctrls_0.memoryStateTime::ACT  871684168499                       # Time in different power states
system.mem_ctrls_0.memoryStateTime::ACT_PDN            0                       # Time in different power states
system.mem_ctrls_1.actEnergy              22868659800                       # Energy for activate commands per rank (pJ)
system.mem_ctrls_1.preEnergy              12477939375                       # Energy for precharge commands per rank (pJ)
system.mem_ctrls_1.readEnergy             17760108600                       # Energy for read commands per rank (pJ)
system.mem_ctrls_1.writeEnergy             7172938800                       # Energy for write commands per rank (pJ)
system.mem_ctrls_1.refreshEnergy          63454048320                       # Energy for refresh commands per rank (pJ)
system.mem_ctrls_1.actBackEnergy         621253092420                       # Energy for active background per rank (pJ)
system.mem_ctrls_1.preBackEnergy          37944894000                       # Energy for precharge background per rank (pJ)
system.mem_ctrls_1.totalEnergy           782931681315                       # Total energy per rank (pJ)
system.mem_ctrls_1.averagePower            805.894646                       # Core power per rank (mW)
system.mem_ctrls_1.memoryStateTime::IDLE  56216603250                       # Time in different power states
system.mem_ctrls_1.memoryStateTime::REF   32166680000                       # Time in different power states
system.mem_ctrls_1.memoryStateTime::PRE_PDN            0                       # Time in different power states
system.mem_ctrls_1.memoryStateTime::ACT  874916362000                       # Time in different power states
system.mem_ctrls_1.memoryStateTime::ACT_PDN            0                       # Time in different power states
system.cpu_voltage_domain.voltage                   1                       # Voltage in Volts
system.cpu_clk_domain.clock                       500                       # Clock period in ticks
system.cpu0.apic_clk_domain.clock                8000                       # Clock period in ticks
system.cpu0.numCycles                      1928897909                       # number of cpu cycles simulated
system.cpu0.numWorkItemsStarted                     0                       # number of work items this cpu started
system.cpu0.numWorkItemsCompleted                   0                       # number of work items this cpu completed
system.cpu0.kern.inst.arm                           0                       # number of arm instructions executed
system.cpu0.kern.inst.quiesce                       0                       # number of quiesce instructions executed
system.cpu0.committedInsts                  124275643                       # Number of instructions committed
system.cpu0.committedOps                    203682037                       # Number of ops (including micro ops) committed
system.cpu0.num_int_alu_accesses            158502281                       # Number of integer alu accesses
system.cpu0.num_fp_alu_accesses              51469713                       # Number of float alu accesses
system.cpu0.num_func_calls                    2434283                       # number of times a function call or return occured
system.cpu0.num_conditional_control_insts      7436517                       # number of instructions that are conditional controls
system.cpu0.num_int_insts                   158502281                       # number of integer instructions
system.cpu0.num_fp_insts                     51469713                       # number of float instructions
system.cpu0.num_int_register_reads          337634969                       # number of times the integer registers were read
system.cpu0.num_int_register_writes         126454983                       # number of times the integer registers were written
system.cpu0.num_fp_register_reads            96849695                       # number of times the floating registers were read
system.cpu0.num_fp_register_writes           49751788                       # number of times the floating registers were written
system.cpu0.num_cc_register_reads            81634013                       # number of times the CC registers were read
system.cpu0.num_cc_register_writes           70223098                       # number of times the CC registers were written
system.cpu0.num_mem_refs                     42532639                       # number of memory refs
system.cpu0.num_load_insts                   33939574                       # Number of load instructions
system.cpu0.num_store_insts                   8593065                       # Number of store instructions
system.cpu0.num_idle_cycles              1055368619.840149                       # Number of idle cycles
system.cpu0.num_busy_cycles              873529289.159851                       # Number of busy cycles
system.cpu0.not_idle_fraction                0.452864                       # Percentage of non-idle cycles
system.cpu0.idle_fraction                    0.547136                       # Percentage of idle cycles
system.cpu0.Branches                         11834376                       # Number of branches fetched
system.cpu0.op_class::No_OpClass              1814979      0.89%      0.89% # Class of executed instruction
system.cpu0.op_class::IntAlu                117281299     57.58%     58.47% # Class of executed instruction
system.cpu0.op_class::IntMult                    4536      0.00%     58.47% # Class of executed instruction
system.cpu0.op_class::IntDiv                     5423      0.00%     58.48% # Class of executed instruction
system.cpu0.op_class::FloatAdd               42045751     20.64%     79.12% # Class of executed instruction
system.cpu0.op_class::FloatCmp                      0      0.00%     79.12% # Class of executed instruction
system.cpu0.op_class::FloatCvt                      0      0.00%     79.12% # Class of executed instruction
system.cpu0.op_class::FloatMult                     0      0.00%     79.12% # Class of executed instruction
system.cpu0.op_class::FloatDiv                      0      0.00%     79.12% # Class of executed instruction
system.cpu0.op_class::FloatSqrt                     0      0.00%     79.12% # Class of executed instruction
system.cpu0.op_class::SimdAdd                       0      0.00%     79.12% # Class of executed instruction
system.cpu0.op_class::SimdAddAcc                    0      0.00%     79.12% # Class of executed instruction
system.cpu0.op_class::SimdAlu                       0      0.00%     79.12% # Class of executed instruction
system.cpu0.op_class::SimdCmp                       0      0.00%     79.12% # Class of executed instruction
system.cpu0.op_class::SimdCvt                       0      0.00%     79.12% # Class of executed instruction
system.cpu0.op_class::SimdMisc                      0      0.00%     79.12% # Class of executed instruction
system.cpu0.op_class::SimdMult                      0      0.00%     79.12% # Class of executed instruction
system.cpu0.op_class::SimdMultAcc                   0      0.00%     79.12% # Class of executed instruction
system.cpu0.op_class::SimdShift                     0      0.00%     79.12% # Class of executed instruction
system.cpu0.op_class::SimdShiftAcc                  0      0.00%     79.12% # Class of executed instruction
system.cpu0.op_class::SimdSqrt                      0      0.00%     79.12% # Class of executed instruction
system.cpu0.op_class::SimdFloatAdd                  0      0.00%     79.12% # Class of executed instruction
system.cpu0.op_class::SimdFloatAlu                  0      0.00%     79.12% # Class of executed instruction
system.cpu0.op_class::SimdFloatCmp                  0      0.00%     79.12% # Class of executed instruction
system.cpu0.op_class::SimdFloatCvt                  0      0.00%     79.12% # Class of executed instruction
system.cpu0.op_class::SimdFloatDiv                  0      0.00%     79.12% # Class of executed instruction
system.cpu0.op_class::SimdFloatMisc                 0      0.00%     79.12% # Class of executed instruction
system.cpu0.op_class::SimdFloatMult                 0      0.00%     79.12% # Class of executed instruction
system.cpu0.op_class::SimdFloatMultAcc              0      0.00%     79.12% # Class of executed instruction
system.cpu0.op_class::SimdFloatSqrt                 0      0.00%     79.12% # Class of executed instruction
system.cpu0.op_class::MemRead                33939574     16.66%     95.78% # Class of executed instruction
system.cpu0.op_class::MemWrite                8593065      4.22%    100.00% # Class of executed instruction
system.cpu0.op_class::IprAccess                     0      0.00%    100.00% # Class of executed instruction
system.cpu0.op_class::InstPrefetch                  0      0.00%    100.00% # Class of executed instruction
system.cpu0.op_class::total                 203684627                       # Class of executed instruction
system.cpu1.apic_clk_domain.clock                8000                       # Clock period in ticks
system.cpu1.numCycles                      1927934886                       # number of cpu cycles simulated
system.cpu1.numWorkItemsStarted                     0                       # number of work items this cpu started
system.cpu1.numWorkItemsCompleted                   0                       # number of work items this cpu completed
system.cpu1.kern.inst.arm                           0                       # number of arm instructions executed
system.cpu1.kern.inst.quiesce                       0                       # number of quiesce instructions executed
system.cpu1.committedInsts                    2506465                       # Number of instructions committed
system.cpu1.committedOps                      5097461                       # Number of ops (including micro ops) committed
system.cpu1.num_int_alu_accesses              5011843                       # Number of integer alu accesses
system.cpu1.num_fp_alu_accesses                    68                       # Number of float alu accesses
system.cpu1.num_func_calls                     120066                       # number of times a function call or return occured
system.cpu1.num_conditional_control_insts       443762                       # number of instructions that are conditional controls
system.cpu1.num_int_insts                     5011843                       # number of integer instructions
system.cpu1.num_fp_insts                           68                       # number of float instructions
system.cpu1.num_int_register_reads            9755244                       # number of times the integer registers were read
system.cpu1.num_int_register_writes           4115358                       # number of times the integer registers were written
system.cpu1.num_fp_register_reads                  70                       # number of times the floating registers were read
system.cpu1.num_fp_register_writes                 62                       # number of times the floating registers were written
system.cpu1.num_cc_register_reads             3263070                       # number of times the CC registers were read
system.cpu1.num_cc_register_writes            1750001                       # number of times the CC registers were written
system.cpu1.num_mem_refs                      1008626                       # number of memory refs
system.cpu1.num_load_insts                     645403                       # Number of load instructions
system.cpu1.num_store_insts                    363223                       # Number of store instructions
system.cpu1.num_idle_cycles              1912232164.258614                       # Number of idle cycles
system.cpu1.num_busy_cycles              15702721.741386                       # Number of busy cycles
system.cpu1.not_idle_fraction                0.008145                       # Percentage of non-idle cycles
system.cpu1.idle_fraction                    0.991855                       # Percentage of idle cycles
system.cpu1.Branches                           603164                       # Number of branches fetched
system.cpu1.op_class::No_OpClass                52403      1.03%      1.03% # Class of executed instruction
system.cpu1.op_class::IntAlu                  4017544     78.81%     79.83% # Class of executed instruction
system.cpu1.op_class::IntMult                    8209      0.16%     79.99% # Class of executed instruction
system.cpu1.op_class::IntDiv                    11216      0.22%     80.21% # Class of executed instruction
system.cpu1.op_class::FloatAdd                     24      0.00%     80.22% # Class of executed instruction
system.cpu1.op_class::FloatCmp                      0      0.00%     80.22% # Class of executed instruction
system.cpu1.op_class::FloatCvt                      0      0.00%     80.22% # Class of executed instruction
system.cpu1.op_class::FloatMult                     0      0.00%     80.22% # Class of executed instruction
system.cpu1.op_class::FloatDiv                      0      0.00%     80.22% # Class of executed instruction
system.cpu1.op_class::FloatSqrt                     0      0.00%     80.22% # Class of executed instruction
system.cpu1.op_class::SimdAdd                       0      0.00%     80.22% # Class of executed instruction
system.cpu1.op_class::SimdAddAcc                    0      0.00%     80.22% # Class of executed instruction
system.cpu1.op_class::SimdAlu                       0      0.00%     80.22% # Class of executed instruction
system.cpu1.op_class::SimdCmp                       0      0.00%     80.22% # Class of executed instruction
system.cpu1.op_class::SimdCvt                       0      0.00%     80.22% # Class of executed instruction
system.cpu1.op_class::SimdMisc                      0      0.00%     80.22% # Class of executed instruction
system.cpu1.op_class::SimdMult                      0      0.00%     80.22% # Class of executed instruction
system.cpu1.op_class::SimdMultAcc                   0      0.00%     80.22% # Class of executed instruction
system.cpu1.op_class::SimdShift                     0      0.00%     80.22% # Class of executed instruction
system.cpu1.op_class::SimdShiftAcc                  0      0.00%     80.22% # Class of executed instruction
system.cpu1.op_class::SimdSqrt                      0      0.00%     80.22% # Class of executed instruction
system.cpu1.op_class::SimdFloatAdd                  0      0.00%     80.22% # Class of executed instruction
system.cpu1.op_class::SimdFloatAlu                  0      0.00%     80.22% # Class of executed instruction
system.cpu1.op_class::SimdFloatCmp                  0      0.00%     80.22% # Class of executed instruction
system.cpu1.op_class::SimdFloatCvt                  0      0.00%     80.22% # Class of executed instruction
system.cpu1.op_class::SimdFloatDiv                  0      0.00%     80.22% # Class of executed instruction
system.cpu1.op_class::SimdFloatMisc                 0      0.00%     80.22% # Class of executed instruction
system.cpu1.op_class::SimdFloatMult                 0      0.00%     80.22% # Class of executed instruction
system.cpu1.op_class::SimdFloatMultAcc              0      0.00%     80.22% # Class of executed instruction
system.cpu1.op_class::SimdFloatSqrt                 0      0.00%     80.22% # Class of executed instruction
system.cpu1.op_class::MemRead                  645403     12.66%     92.88% # Class of executed instruction
system.cpu1.op_class::MemWrite                 363223      7.12%    100.00% # Class of executed instruction
system.cpu1.op_class::IprAccess                     0      0.00%    100.00% # Class of executed instruction
system.cpu1.op_class::InstPrefetch                  0      0.00%    100.00% # Class of executed instruction
system.cpu1.op_class::total                   5098022                       # Class of executed instruction
system.cpu2.apic_clk_domain.clock                8000                       # Clock period in ticks
system.cpu2.numCycles                      1924370262                       # number of cpu cycles simulated
system.cpu2.numWorkItemsStarted                     0                       # number of work items this cpu started
system.cpu2.numWorkItemsCompleted                   0                       # number of work items this cpu completed
system.cpu2.kern.inst.arm                           0                       # number of arm instructions executed
system.cpu2.kern.inst.quiesce                       0                       # number of quiesce instructions executed
system.cpu2.committedInsts                  149171782                       # Number of instructions committed
system.cpu2.committedOps                    247114043                       # Number of ops (including micro ops) committed
system.cpu2.num_int_alu_accesses            196099200                       # Number of integer alu accesses
system.cpu2.num_fp_alu_accesses              58126292                       # Number of float alu accesses
system.cpu2.num_func_calls                    3131742                       # number of times a function call or return occured
system.cpu2.num_conditional_control_insts      9690498                       # number of instructions that are conditional controls
system.cpu2.num_int_insts                   196099200                       # number of integer instructions
system.cpu2.num_fp_insts                     58126292                       # number of float instructions
system.cpu2.num_int_register_reads          415220493                       # number of times the integer registers were read
system.cpu2.num_int_register_writes         156155959                       # number of times the integer registers were written
system.cpu2.num_fp_register_reads           107770796                       # number of times the floating registers were read
system.cpu2.num_fp_register_writes           55890855                       # number of times the floating registers were written
system.cpu2.num_cc_register_reads           101027332                       # number of times the CC registers were read
system.cpu2.num_cc_register_writes           85612616                       # number of times the CC registers were written
system.cpu2.num_mem_refs                     52067779                       # number of memory refs
system.cpu2.num_load_insts                   41011146                       # Number of load instructions
system.cpu2.num_store_insts                  11056633                       # Number of store instructions
system.cpu2.num_idle_cycles              867291110.307833                       # Number of idle cycles
system.cpu2.num_busy_cycles              1057079151.692167                       # Number of busy cycles
system.cpu2.not_idle_fraction                0.549312                       # Percentage of non-idle cycles
system.cpu2.idle_fraction                    0.450688                       # Percentage of idle cycles
system.cpu2.Branches                         15599182                       # Number of branches fetched
system.cpu2.op_class::No_OpClass              2136728      0.86%      0.86% # Class of executed instruction
system.cpu2.op_class::IntAlu                143929865     58.24%     59.11% # Class of executed instruction
system.cpu2.op_class::IntMult                    4127      0.00%     59.11% # Class of executed instruction
system.cpu2.op_class::IntDiv                     4619      0.00%     59.11% # Class of executed instruction
system.cpu2.op_class::FloatAdd               48971018     19.82%     78.93% # Class of executed instruction
system.cpu2.op_class::FloatCmp                      0      0.00%     78.93% # Class of executed instruction
system.cpu2.op_class::FloatCvt                      0      0.00%     78.93% # Class of executed instruction
system.cpu2.op_class::FloatMult                     0      0.00%     78.93% # Class of executed instruction
system.cpu2.op_class::FloatDiv                      0      0.00%     78.93% # Class of executed instruction
system.cpu2.op_class::FloatSqrt                     0      0.00%     78.93% # Class of executed instruction
system.cpu2.op_class::SimdAdd                       0      0.00%     78.93% # Class of executed instruction
system.cpu2.op_class::SimdAddAcc                    0      0.00%     78.93% # Class of executed instruction
system.cpu2.op_class::SimdAlu                       0      0.00%     78.93% # Class of executed instruction
system.cpu2.op_class::SimdCmp                       0      0.00%     78.93% # Class of executed instruction
system.cpu2.op_class::SimdCvt                       0      0.00%     78.93% # Class of executed instruction
system.cpu2.op_class::SimdMisc                      0      0.00%     78.93% # Class of executed instruction
system.cpu2.op_class::SimdMult                      0      0.00%     78.93% # Class of executed instruction
system.cpu2.op_class::SimdMultAcc                   0      0.00%     78.93% # Class of executed instruction
system.cpu2.op_class::SimdShift                     0      0.00%     78.93% # Class of executed instruction
system.cpu2.op_class::SimdShiftAcc                  0      0.00%     78.93% # Class of executed instruction
system.cpu2.op_class::SimdSqrt                      0      0.00%     78.93% # Class of executed instruction
system.cpu2.op_class::SimdFloatAdd                  0      0.00%     78.93% # Class of executed instruction
system.cpu2.op_class::SimdFloatAlu                  0      0.00%     78.93% # Class of executed instruction
system.cpu2.op_class::SimdFloatCmp                  0      0.00%     78.93% # Class of executed instruction
system.cpu2.op_class::SimdFloatCvt                  0      0.00%     78.93% # Class of executed instruction
system.cpu2.op_class::SimdFloatDiv                  0      0.00%     78.93% # Class of executed instruction
system.cpu2.op_class::SimdFloatMisc                 0      0.00%     78.93% # Class of executed instruction
system.cpu2.op_class::SimdFloatMult                 0      0.00%     78.93% # Class of executed instruction
system.cpu2.op_class::SimdFloatMultAcc              0      0.00%     78.93% # Class of executed instruction
system.cpu2.op_class::SimdFloatSqrt                 0      0.00%     78.93% # Class of executed instruction
system.cpu2.op_class::MemRead                41011146     16.60%     95.53% # Class of executed instruction
system.cpu2.op_class::MemWrite               11056633      4.47%    100.00% # Class of executed instruction
system.cpu2.op_class::IprAccess                     0      0.00%    100.00% # Class of executed instruction
system.cpu2.op_class::InstPrefetch                  0      0.00%    100.00% # Class of executed instruction
system.cpu2.op_class::total                 247114136                       # Class of executed instruction
system.cpu3.apic_clk_domain.clock                8000                       # Clock period in ticks
system.cpu3.numCycles                      1931923265                       # number of cpu cycles simulated
system.cpu3.numWorkItemsStarted                     0                       # number of work items this cpu started
system.cpu3.numWorkItemsCompleted                   0                       # number of work items this cpu completed
system.cpu3.kern.inst.arm                           0                       # number of arm instructions executed
system.cpu3.kern.inst.quiesce                       0                       # number of quiesce instructions executed
system.cpu3.committedInsts                    1056541                       # Number of instructions committed
system.cpu3.committedOps                      2198839                       # Number of ops (including micro ops) committed
system.cpu3.num_int_alu_accesses              2161477                       # Number of integer alu accesses
system.cpu3.num_fp_alu_accesses                   404                       # Number of float alu accesses
system.cpu3.num_func_calls                      55596                       # number of times a function call or return occured
system.cpu3.num_conditional_control_insts       193164                       # number of instructions that are conditional controls
system.cpu3.num_int_insts                     2161477                       # number of integer instructions
system.cpu3.num_fp_insts                          404                       # number of float instructions
system.cpu3.num_int_register_reads            4205431                       # number of times the integer registers were read
system.cpu3.num_int_register_writes           1764285                       # number of times the integer registers were written
system.cpu3.num_fp_register_reads                 712                       # number of times the floating registers were read
system.cpu3.num_fp_register_writes                364                       # number of times the floating registers were written
system.cpu3.num_cc_register_reads             1408780                       # number of times the CC registers were read
system.cpu3.num_cc_register_writes             715383                       # number of times the CC registers were written
system.cpu3.num_mem_refs                       462073                       # number of memory refs
system.cpu3.num_load_insts                     288663                       # Number of load instructions
system.cpu3.num_store_insts                    173410                       # Number of store instructions
system.cpu3.num_idle_cycles              1923558147.952612                       # Number of idle cycles
system.cpu3.num_busy_cycles              8365117.047388                       # Number of busy cycles
system.cpu3.not_idle_fraction                0.004330                       # Percentage of non-idle cycles
system.cpu3.idle_fraction                    0.995670                       # Percentage of idle cycles
system.cpu3.Branches                           265652                       # Number of branches fetched
system.cpu3.op_class::No_OpClass                26447      1.20%      1.20% # Class of executed instruction
system.cpu3.op_class::IntAlu                  1697371     77.19%     78.40% # Class of executed instruction
system.cpu3.op_class::IntMult                    4381      0.20%     78.59% # Class of executed instruction
system.cpu3.op_class::IntDiv                     8281      0.38%     78.97% # Class of executed instruction
system.cpu3.op_class::FloatAdd                    320      0.01%     78.99% # Class of executed instruction
system.cpu3.op_class::FloatCmp                      0      0.00%     78.99% # Class of executed instruction
system.cpu3.op_class::FloatCvt                      0      0.00%     78.99% # Class of executed instruction
system.cpu3.op_class::FloatMult                     0      0.00%     78.99% # Class of executed instruction
system.cpu3.op_class::FloatDiv                      0      0.00%     78.99% # Class of executed instruction
system.cpu3.op_class::FloatSqrt                     0      0.00%     78.99% # Class of executed instruction
system.cpu3.op_class::SimdAdd                       0      0.00%     78.99% # Class of executed instruction
system.cpu3.op_class::SimdAddAcc                    0      0.00%     78.99% # Class of executed instruction
system.cpu3.op_class::SimdAlu                       0      0.00%     78.99% # Class of executed instruction
system.cpu3.op_class::SimdCmp                       0      0.00%     78.99% # Class of executed instruction
system.cpu3.op_class::SimdCvt                       0      0.00%     78.99% # Class of executed instruction
system.cpu3.op_class::SimdMisc                      0      0.00%     78.99% # Class of executed instruction
system.cpu3.op_class::SimdMult                      0      0.00%     78.99% # Class of executed instruction
system.cpu3.op_class::SimdMultAcc                   0      0.00%     78.99% # Class of executed instruction
system.cpu3.op_class::SimdShift                     0      0.00%     78.99% # Class of executed instruction
system.cpu3.op_class::SimdShiftAcc                  0      0.00%     78.99% # Class of executed instruction
system.cpu3.op_class::SimdSqrt                      0      0.00%     78.99% # Class of executed instruction
system.cpu3.op_class::SimdFloatAdd                  0      0.00%     78.99% # Class of executed instruction
system.cpu3.op_class::SimdFloatAlu                  0      0.00%     78.99% # Class of executed instruction
system.cpu3.op_class::SimdFloatCmp                  0      0.00%     78.99% # Class of executed instruction
system.cpu3.op_class::SimdFloatCvt                  0      0.00%     78.99% # Class of executed instruction
system.cpu3.op_class::SimdFloatDiv                  0      0.00%     78.99% # Class of executed instruction
system.cpu3.op_class::SimdFloatMisc                 0      0.00%     78.99% # Class of executed instruction
system.cpu3.op_class::SimdFloatMult                 0      0.00%     78.99% # Class of executed instruction
system.cpu3.op_class::SimdFloatMultAcc              0      0.00%     78.99% # Class of executed instruction
system.cpu3.op_class::SimdFloatSqrt                 0      0.00%     78.99% # Class of executed instruction
system.cpu3.op_class::MemRead                  288663     13.13%     92.11% # Class of executed instruction
system.cpu3.op_class::MemWrite                 173410      7.89%    100.00% # Class of executed instruction
system.cpu3.op_class::IprAccess                     0      0.00%    100.00% # Class of executed instruction
system.cpu3.op_class::InstPrefetch                  0      0.00%    100.00% # Class of executed instruction
system.cpu3.op_class::total                   2198873                       # Class of executed instruction
system.iobus.trans_dist::ReadReq                  566                       # Transaction distribution
system.iobus.trans_dist::ReadResp                 566                       # Transaction distribution
system.iobus.trans_dist::WriteReq                2000                       # Transaction distribution
system.iobus.trans_dist::WriteResp               2000                       # Transaction distribution
system.iobus.trans_dist::MessageReq                78                       # Transaction distribution
system.iobus.trans_dist::MessageResp               78                       # Transaction distribution
system.iobus.pkt_count_system.pc.south_bridge.io_apic.int_master::system.ruby.l0_cntrl0.sequencer.pio-slave-port           32                       # Packet count per connected master and slave (bytes)
system.iobus.pkt_count_system.pc.south_bridge.io_apic.int_master::system.ruby.l0_cntrl1.sequencer.pio-slave-port           32                       # Packet count per connected master and slave (bytes)
system.iobus.pkt_count_system.pc.south_bridge.io_apic.int_master::system.ruby.l0_cntrl2.sequencer.pio-slave-port           32                       # Packet count per connected master and slave (bytes)
system.iobus.pkt_count_system.pc.south_bridge.io_apic.int_master::system.ruby.l0_cntrl3.sequencer.pio-slave-port           32                       # Packet count per connected master and slave (bytes)
system.iobus.pkt_count_system.pc.south_bridge.io_apic.int_master::total          128                       # Packet count per connected master and slave (bytes)
system.iobus.pkt_count_system.ruby.l0_cntrl0.sequencer.mem-master-port::system.pc.south_bridge.ide.pio          622                       # Packet count per connected master and slave (bytes)
system.iobus.pkt_count_system.ruby.l0_cntrl0.sequencer.mem-master-port::system.pc.south_bridge.io_apic.pio            8                       # Packet count per connected master and slave (bytes)
system.iobus.pkt_count_system.ruby.l0_cntrl0.sequencer.mem-master-port::system.pc.com_1.pio            2                       # Packet count per connected master and slave (bytes)
system.iobus.pkt_count_system.ruby.l0_cntrl0.sequencer.mem-master-port::system.ruby.l0_cntrl0.sequencer.pio-slave-port          554                       # Packet count per connected master and slave (bytes)
system.iobus.pkt_count_system.ruby.l0_cntrl0.sequencer.mem-master-port::system.ruby.l0_cntrl1.sequencer.pio-slave-port            4                       # Packet count per connected master and slave (bytes)
system.iobus.pkt_count_system.ruby.l0_cntrl0.sequencer.mem-master-port::system.ruby.l0_cntrl2.sequencer.pio-slave-port            2                       # Packet count per connected master and slave (bytes)
system.iobus.pkt_count_system.ruby.l0_cntrl0.sequencer.mem-master-port::system.ruby.l0_cntrl3.sequencer.pio-slave-port            4                       # Packet count per connected master and slave (bytes)
system.iobus.pkt_count_system.ruby.l0_cntrl0.sequencer.mem-master-port::total         1196                       # Packet count per connected master and slave (bytes)
system.iobus.pkt_count_system.ruby.l0_cntrl1.sequencer.mem-master-port::system.pc.south_bridge.ide.pio          962                       # Packet count per connected master and slave (bytes)
system.iobus.pkt_count_system.ruby.l0_cntrl1.sequencer.mem-master-port::system.pc.south_bridge.io_apic.pio            8                       # Packet count per connected master and slave (bytes)
system.iobus.pkt_count_system.ruby.l0_cntrl1.sequencer.mem-master-port::system.ruby.l0_cntrl0.sequencer.pio-slave-port            2                       # Packet count per connected master and slave (bytes)
system.iobus.pkt_count_system.ruby.l0_cntrl1.sequencer.mem-master-port::system.ruby.l0_cntrl1.sequencer.pio-slave-port          534                       # Packet count per connected master and slave (bytes)
system.iobus.pkt_count_system.ruby.l0_cntrl1.sequencer.mem-master-port::system.ruby.l0_cntrl2.sequencer.pio-slave-port            2                       # Packet count per connected master and slave (bytes)
system.iobus.pkt_count_system.ruby.l0_cntrl1.sequencer.mem-master-port::total         1508                       # Packet count per connected master and slave (bytes)
system.iobus.pkt_count_system.ruby.l0_cntrl2.sequencer.mem-master-port::system.pc.south_bridge.ide.pio          554                       # Packet count per connected master and slave (bytes)
system.iobus.pkt_count_system.ruby.l0_cntrl2.sequencer.mem-master-port::system.pc.south_bridge.io_apic.pio            8                       # Packet count per connected master and slave (bytes)
system.iobus.pkt_count_system.ruby.l0_cntrl2.sequencer.mem-master-port::system.ruby.l0_cntrl0.sequencer.pio-slave-port            6                       # Packet count per connected master and slave (bytes)
system.iobus.pkt_count_system.ruby.l0_cntrl2.sequencer.mem-master-port::system.ruby.l0_cntrl1.sequencer.pio-slave-port            2                       # Packet count per connected master and slave (bytes)
system.iobus.pkt_count_system.ruby.l0_cntrl2.sequencer.mem-master-port::system.ruby.l0_cntrl2.sequencer.pio-slave-port          546                       # Packet count per connected master and slave (bytes)
system.iobus.pkt_count_system.ruby.l0_cntrl2.sequencer.mem-master-port::system.ruby.l0_cntrl3.sequencer.pio-slave-port            2                       # Packet count per connected master and slave (bytes)
system.iobus.pkt_count_system.ruby.l0_cntrl2.sequencer.mem-master-port::total         1118                       # Packet count per connected master and slave (bytes)
system.iobus.pkt_count_system.ruby.l0_cntrl3.sequencer.mem-master-port::system.pc.south_bridge.ide.pio          622                       # Packet count per connected master and slave (bytes)
system.iobus.pkt_count_system.ruby.l0_cntrl3.sequencer.mem-master-port::system.pc.south_bridge.io_apic.pio            6                       # Packet count per connected master and slave (bytes)
system.iobus.pkt_count_system.ruby.l0_cntrl3.sequencer.mem-master-port::system.pc.com_1.pio          174                       # Packet count per connected master and slave (bytes)
system.iobus.pkt_count_system.ruby.l0_cntrl3.sequencer.mem-master-port::system.ruby.l0_cntrl0.sequencer.pio-slave-port            2                       # Packet count per connected master and slave (bytes)
system.iobus.pkt_count_system.ruby.l0_cntrl3.sequencer.mem-master-port::system.ruby.l0_cntrl1.sequencer.pio-slave-port            2                       # Packet count per connected master and slave (bytes)
system.iobus.pkt_count_system.ruby.l0_cntrl3.sequencer.mem-master-port::system.ruby.l0_cntrl3.sequencer.pio-slave-port          532                       # Packet count per connected master and slave (bytes)
system.iobus.pkt_count_system.ruby.l0_cntrl3.sequencer.mem-master-port::total         1338                       # Packet count per connected master and slave (bytes)
system.iobus.pkt_count::total                    5288                       # Packet count per connected master and slave (bytes)
system.iobus.pkt_size_system.pc.south_bridge.io_apic.int_master::system.ruby.l0_cntrl0.sequencer.pio-slave-port           64                       # Cumulative packet size per connected master and slave (bytes)
system.iobus.pkt_size_system.pc.south_bridge.io_apic.int_master::system.ruby.l0_cntrl1.sequencer.pio-slave-port           64                       # Cumulative packet size per connected master and slave (bytes)
system.iobus.pkt_size_system.pc.south_bridge.io_apic.int_master::system.ruby.l0_cntrl2.sequencer.pio-slave-port           64                       # Cumulative packet size per connected master and slave (bytes)
system.iobus.pkt_size_system.pc.south_bridge.io_apic.int_master::system.ruby.l0_cntrl3.sequencer.pio-slave-port           64                       # Cumulative packet size per connected master and slave (bytes)
system.iobus.pkt_size_system.pc.south_bridge.io_apic.int_master::total          256                       # Cumulative packet size per connected master and slave (bytes)
system.iobus.pkt_size_system.ruby.l0_cntrl0.sequencer.mem-master-port::system.pc.south_bridge.ide.pio          350                       # Cumulative packet size per connected master and slave (bytes)
system.iobus.pkt_size_system.ruby.l0_cntrl0.sequencer.mem-master-port::system.pc.south_bridge.io_apic.pio           16                       # Cumulative packet size per connected master and slave (bytes)
system.iobus.pkt_size_system.ruby.l0_cntrl0.sequencer.mem-master-port::system.pc.com_1.pio            1                       # Cumulative packet size per connected master and slave (bytes)
system.iobus.pkt_size_system.ruby.l0_cntrl0.sequencer.mem-master-port::system.ruby.l0_cntrl0.sequencer.pio-slave-port         1108                       # Cumulative packet size per connected master and slave (bytes)
system.iobus.pkt_size_system.ruby.l0_cntrl0.sequencer.mem-master-port::system.ruby.l0_cntrl1.sequencer.pio-slave-port            8                       # Cumulative packet size per connected master and slave (bytes)
system.iobus.pkt_size_system.ruby.l0_cntrl0.sequencer.mem-master-port::system.ruby.l0_cntrl2.sequencer.pio-slave-port            4                       # Cumulative packet size per connected master and slave (bytes)
system.iobus.pkt_size_system.ruby.l0_cntrl0.sequencer.mem-master-port::system.ruby.l0_cntrl3.sequencer.pio-slave-port            8                       # Cumulative packet size per connected master and slave (bytes)
system.iobus.pkt_size_system.ruby.l0_cntrl0.sequencer.mem-master-port::total         1495                       # Cumulative packet size per connected master and slave (bytes)
system.iobus.pkt_size_system.ruby.l0_cntrl1.sequencer.mem-master-port::system.pc.south_bridge.ide.pio          550                       # Cumulative packet size per connected master and slave (bytes)
system.iobus.pkt_size_system.ruby.l0_cntrl1.sequencer.mem-master-port::system.pc.south_bridge.io_apic.pio           16                       # Cumulative packet size per connected master and slave (bytes)
system.iobus.pkt_size_system.ruby.l0_cntrl1.sequencer.mem-master-port::system.ruby.l0_cntrl0.sequencer.pio-slave-port            4                       # Cumulative packet size per connected master and slave (bytes)
system.iobus.pkt_size_system.ruby.l0_cntrl1.sequencer.mem-master-port::system.ruby.l0_cntrl1.sequencer.pio-slave-port         1068                       # Cumulative packet size per connected master and slave (bytes)
system.iobus.pkt_size_system.ruby.l0_cntrl1.sequencer.mem-master-port::system.ruby.l0_cntrl2.sequencer.pio-slave-port            4                       # Cumulative packet size per connected master and slave (bytes)
system.iobus.pkt_size_system.ruby.l0_cntrl1.sequencer.mem-master-port::total         1642                       # Cumulative packet size per connected master and slave (bytes)
system.iobus.pkt_size_system.ruby.l0_cntrl2.sequencer.mem-master-port::system.pc.south_bridge.ide.pio          310                       # Cumulative packet size per connected master and slave (bytes)
system.iobus.pkt_size_system.ruby.l0_cntrl2.sequencer.mem-master-port::system.pc.south_bridge.io_apic.pio           16                       # Cumulative packet size per connected master and slave (bytes)
system.iobus.pkt_size_system.ruby.l0_cntrl2.sequencer.mem-master-port::system.ruby.l0_cntrl0.sequencer.pio-slave-port           12                       # Cumulative packet size per connected master and slave (bytes)
system.iobus.pkt_size_system.ruby.l0_cntrl2.sequencer.mem-master-port::system.ruby.l0_cntrl1.sequencer.pio-slave-port            4                       # Cumulative packet size per connected master and slave (bytes)
system.iobus.pkt_size_system.ruby.l0_cntrl2.sequencer.mem-master-port::system.ruby.l0_cntrl2.sequencer.pio-slave-port         1092                       # Cumulative packet size per connected master and slave (bytes)
system.iobus.pkt_size_system.ruby.l0_cntrl2.sequencer.mem-master-port::system.ruby.l0_cntrl3.sequencer.pio-slave-port            4                       # Cumulative packet size per connected master and slave (bytes)
system.iobus.pkt_size_system.ruby.l0_cntrl2.sequencer.mem-master-port::total         1438                       # Cumulative packet size per connected master and slave (bytes)
system.iobus.pkt_size_system.ruby.l0_cntrl3.sequencer.mem-master-port::system.pc.south_bridge.ide.pio          350                       # Cumulative packet size per connected master and slave (bytes)
system.iobus.pkt_size_system.ruby.l0_cntrl3.sequencer.mem-master-port::system.pc.south_bridge.io_apic.pio           12                       # Cumulative packet size per connected master and slave (bytes)
system.iobus.pkt_size_system.ruby.l0_cntrl3.sequencer.mem-master-port::system.pc.com_1.pio           87                       # Cumulative packet size per connected master and slave (bytes)
system.iobus.pkt_size_system.ruby.l0_cntrl3.sequencer.mem-master-port::system.ruby.l0_cntrl0.sequencer.pio-slave-port            4                       # Cumulative packet size per connected master and slave (bytes)
system.iobus.pkt_size_system.ruby.l0_cntrl3.sequencer.mem-master-port::system.ruby.l0_cntrl1.sequencer.pio-slave-port            4                       # Cumulative packet size per connected master and slave (bytes)
system.iobus.pkt_size_system.ruby.l0_cntrl3.sequencer.mem-master-port::system.ruby.l0_cntrl3.sequencer.pio-slave-port         1064                       # Cumulative packet size per connected master and slave (bytes)
system.iobus.pkt_size_system.ruby.l0_cntrl3.sequencer.mem-master-port::total         1521                       # Cumulative packet size per connected master and slave (bytes)
system.iobus.pkt_size::total                     6352                       # Cumulative packet size per connected master and slave (bytes)
system.iobus.reqLayer2.occupancy              2412000                       # Layer occupancy (ticks)
system.iobus.reqLayer2.utilization                0.0                       # Layer utilization (%)
system.iobus.reqLayer8.occupancy                27996                       # Layer occupancy (ticks)
system.iobus.reqLayer8.utilization                0.0                       # Layer utilization (%)
system.iobus.reqLayer12.occupancy              114500                       # Layer occupancy (ticks)
system.iobus.reqLayer12.utilization               0.0                       # Layer utilization (%)
system.iobus.reqLayer17.occupancy              729360                       # Layer occupancy (ticks)
system.iobus.reqLayer17.utilization               0.0                       # Layer utilization (%)
system.iobus.reqLayer18.occupancy              644984                       # Layer occupancy (ticks)
system.iobus.reqLayer18.utilization               0.0                       # Layer utilization (%)
system.iobus.reqLayer19.occupancy              716352                       # Layer occupancy (ticks)
system.iobus.reqLayer19.utilization               0.0                       # Layer utilization (%)
system.iobus.reqLayer20.occupancy              645985                       # Layer occupancy (ticks)
system.iobus.reqLayer20.utilization               0.0                       # Layer utilization (%)
system.iobus.respLayer0.occupancy              107440                       # Layer occupancy (ticks)
system.iobus.respLayer0.utilization               0.0                       # Layer utilization (%)
system.iobus.respLayer2.occupancy              856500                       # Layer occupancy (ticks)
system.iobus.respLayer2.utilization               0.0                       # Layer utilization (%)
system.iobus.respLayer4.occupancy             1043500                       # Layer occupancy (ticks)
system.iobus.respLayer4.utilization               0.0                       # Layer utilization (%)
system.iobus.respLayer6.occupancy              807000                       # Layer occupancy (ticks)
system.iobus.respLayer6.utilization               0.0                       # Layer utilization (%)
system.iobus.respLayer8.occupancy              982000                       # Layer occupancy (ticks)
system.iobus.respLayer8.utilization               0.0                       # Layer utilization (%)
system.pc.south_bridge.ide.disks.dma_read_full_pages          886                       # Number of full page size DMA reads (not PRD).
system.pc.south_bridge.ide.disks.dma_read_bytes      3629056                       # Number of bytes transfered via DMA reads (not PRD).
[...]
system.ruby.L1Cache_Controller.Data_Exclusive::total     11646408                      
system.ruby.L1Cache_Controller.DataS_fromL1 |       17509     37.19%     37.19% |        5316     11.29%     48.48% |       14499     30.79%     79.27% |        9761     20.73%    100.00%
system.ruby.L1Cache_Controller.DataS_fromL1::total        47085                      
system.ruby.L1Cache_Controller.Data_all_Acks |     1344853     28.80%     28.80% |       45331      0.97%     29.77% |     3223577     69.03%     98.79% |       56347      1.21%    100.00%
system.ruby.L1Cache_Controller.Data_all_Acks::total      4670108                      
system.ruby.L1Cache_Controller.L0_Ack    |      361609     28.90%     28.90% |       55628      4.45%     33.35% |      774829     61.93%     95.27% |       59153      4.73%    100.00%
system.ruby.L1Cache_Controller.L0_Ack::total      1251219                      
system.ruby.L1Cache_Controller.Ack       |        8316     56.39%     56.39% |        1266      8.59%     64.98% |        2966     20.11%     85.09% |        2198     14.91%    100.00%
system.ruby.L1Cache_Controller.Ack::total        14746                      
system.ruby.L1Cache_Controller.Ack_all   |        4640     47.62%     47.62% |        1092     11.21%     58.83% |        2117     21.73%     80.55% |        1895     19.45%    100.00%
system.ruby.L1Cache_Controller.Ack_all::total         9744                      
system.ruby.L1Cache_Controller.WB_Ack    |     4404876     28.33%     28.33% |       39153      0.25%     28.58% |    11063742     71.16%     99.74% |       40025      0.26%    100.00%
system.ruby.L1Cache_Controller.WB_Ack::total     15547796                      
system.ruby.L1Cache_Controller.I.Load    |     3419148     27.72%     27.72% |      102252      0.83%     28.55% |     8713815     70.64%     99.19% |      100148      0.81%    100.00%
system.ruby.L1Cache_Controller.I.Load::total     12335363                      
system.ruby.L1Cache_Controller.I.Store   |     1188009     29.48%     29.48% |       16808      0.42%     29.90% |     2801371     69.51%     99.41% |       23968      0.59%    100.00%
system.ruby.L1Cache_Controller.I.Store::total      4030156                      
system.ruby.L1Cache_Controller.I.Inv     |        8100     27.58%     27.58% |        3048     10.38%     37.96% |       14954     50.91%     88.87% |        3269     11.13%    100.00%
system.ruby.L1Cache_Controller.I.Inv::total        29371                      
system.ruby.L1Cache_Controller.S.Load    |     2665042     23.04%     23.04% |      120662      1.04%     24.09% |     8696345     75.19%     99.28% |       83040      0.72%    100.00%
system.ruby.L1Cache_Controller.S.Load::total     11565089                      
system.ruby.L1Cache_Controller.S.Store   |        3278     45.19%     45.19% |         964     13.29%     58.48% |        1699     23.42%     81.90% |        1313     18.10%    100.00%
system.ruby.L1Cache_Controller.S.Store::total         7254                      
system.ruby.L1Cache_Controller.S.L0_Invalidate_Own |      153987     24.38%     24.38% |       22989      3.64%     28.02% |      429567     68.02%     96.04% |       25028      3.96%    100.00%
system.ruby.L1Cache_Controller.S.L0_Invalidate_Own::total       631571                      
system.ruby.L1Cache_Controller.S.L0_Invalidate_Else |       19896     29.12%     29.12% |       18351     26.86%     55.98% |        7051     10.32%     66.30% |       23027     33.70%    100.00%
system.ruby.L1Cache_Controller.S.L0_Invalidate_Else::total        68325                      
system.ruby.L1Cache_Controller.SS.Load   |        1721      9.36%      9.36% |        8367     45.50%     54.86% |        1414      7.69%     62.55% |        6886     37.45%    100.00%
system.ruby.L1Cache_Controller.SS.Load::total        18388                      
system.ruby.L1Cache_Controller.SS.Store  |         348     60.84%     60.84% |          34      5.94%     66.78% |         112     19.58%     86.36% |          78     13.64%    100.00%
system.ruby.L1Cache_Controller.SS.Store::total          572                      
system.ruby.L1Cache_Controller.SS.Inv    |       21591     23.53%     23.53% |       28825     31.42%     54.95% |        8926      9.73%     64.68% |       32403     35.32%    100.00%
system.ruby.L1Cache_Controller.SS.Inv::total        91745                      
system.ruby.L1Cache_Controller.SS.L1_Replacement |      154934     24.34%     24.34% |       23957      3.76%     28.10% |      431210     67.74%     95.85% |       26438      4.15%    100.00%
system.ruby.L1Cache_Controller.SS.L1_Replacement::total       636539                      
system.ruby.L1Cache_Controller.E.WriteBack |     3038031     27.41%     27.41% |       56659      0.51%     27.93% |     7939331     71.64%     99.57% |       48106      0.43%    100.00%
system.ruby.L1Cache_Controller.E.WriteBack::total     11082127                      
system.ruby.L1Cache_Controller.E.L0_Invalidate_Own |      203252     37.66%     37.66% |         471      0.09%     37.75% |      335671     62.19%     99.94% |         324      0.06%    100.00%
system.ruby.L1Cache_Controller.E.L0_Invalidate_Own::total       539718                      
system.ruby.L1Cache_Controller.E.L0_Invalidate_Else |        2487     10.12%     10.12% |       11195     45.56%     55.68% |        1816      7.39%     63.07% |        9074     36.93%    100.00%
system.ruby.L1Cache_Controller.E.L0_Invalidate_Else::total        24572                      
system.ruby.L1Cache_Controller.EE.Inv    |        1706     15.47%     15.47% |        5030     45.60%     61.07% |         945      8.57%     69.64% |        3349     30.36%    100.00%
system.ruby.L1Cache_Controller.EE.Inv::total        11030                      
system.ruby.L1Cache_Controller.EE.L1_Replacement |      154549     35.93%     35.93% |         402      0.09%     36.03% |      274869     63.91%     99.94% |         275      0.06%    100.00%
system.ruby.L1Cache_Controller.EE.L1_Replacement::total       430095                      
system.ruby.L1Cache_Controller.EE.Fwd_GETX |           9     50.00%     50.00% |           2     11.11%     61.11% |           4     22.22%     83.33% |           3     16.67%    100.00%
system.ruby.L1Cache_Controller.EE.Fwd_GETX::total           18                      
system.ruby.L1Cache_Controller.EE.Fwd_GETS |         388      3.50%      3.50% |        5357     48.37%     51.87% |         625      5.64%     57.51% |        4706     42.49%    100.00%
system.ruby.L1Cache_Controller.EE.Fwd_GETS::total        11076                      
system.ruby.L1Cache_Controller.M.WriteBack |    10174902     31.82%     31.82% |      158501      0.50%     32.31% |    21518447     67.28%     99.60% |      129424      0.40%    100.00%
system.ruby.L1Cache_Controller.M.WriteBack::total     31981274                      
system.ruby.L1Cache_Controller.M.L0_Invalidate_Own |      141794     41.36%     41.36% |        1556      0.45%     41.81% |      198219     57.82%     99.63% |        1280      0.37%    100.00%
system.ruby.L1Cache_Controller.M.L0_Invalidate_Own::total       342849                      
system.ruby.L1Cache_Controller.M.L0_Invalidate_Else |        6023     23.72%     23.72% |        7740     30.48%     54.19% |        2399      9.45%     63.64% |        9234     36.36%    100.00%
system.ruby.L1Cache_Controller.M.L0_Invalidate_Else::total        25396                      
system.ruby.L1Cache_Controller.MM.Load   |     8354626     32.31%     32.31% |      126494      0.49%     32.80% |    17278403     66.83%     99.63% |       95077      0.37%    100.00%
system.ruby.L1Cache_Controller.MM.Load::total     25854600                      
system.ruby.L1Cache_Controller.MM.Store  |      776477     31.60%     31.60% |       23496      0.96%     32.56% |     1637450     66.65%     99.21% |       19505      0.79%    100.00%
system.ruby.L1Cache_Controller.MM.Store::total      2456928                      
system.ruby.L1Cache_Controller.MM.Inv    |       23283     30.52%     30.52% |       21792     28.57%     59.09% |       10023     13.14%     72.22% |       21190     27.78%    100.00%
system.ruby.L1Cache_Controller.MM.Inv::total        76288                      
system.ruby.L1Cache_Controller.MM.L1_Replacement |     4250327     28.11%     28.11% |       38751      0.26%     28.37% |    10788873     71.37%     99.74% |       39750      0.26%    100.00%
system.ruby.L1Cache_Controller.MM.L1_Replacement::total     15117701                      
system.ruby.L1Cache_Controller.MM.Fwd_GETX |         559     24.96%     24.96% |         419     18.71%     43.66% |         635     28.35%     72.01% |         627     27.99%    100.00%
system.ruby.L1Cache_Controller.MM.Fwd_GETX::total         2240                      
system.ruby.L1Cache_Controller.MM.Fwd_GETS |        4231     11.75%     11.75% |       14478     40.21%     51.96% |        4424     12.29%     64.24% |       12876     35.76%    100.00%
system.ruby.L1Cache_Controller.MM.Fwd_GETS::total        36009                      
system.ruby.L1Cache_Controller.IS.Data_Exclusive |     3243781     27.85%     27.85% |       68319      0.59%     28.44% |     8276804     71.07%     99.51% |       57504      0.49%    100.00%
system.ruby.L1Cache_Controller.IS.Data_Exclusive::total     11646408                      
system.ruby.L1Cache_Controller.IS.DataS_fromL1 |       17509     37.19%     37.19% |        5316     11.29%     48.48% |       14499     30.79%     79.27% |        9761     20.73%    100.00%
system.ruby.L1Cache_Controller.IS.DataS_fromL1::total        47085                      
system.ruby.L1Cache_Controller.IS.Data_all_Acks |      157858     24.59%     24.59% |       28617      4.46%     29.05% |      422512     65.83%     94.88% |       32883      5.12%    100.00%
system.ruby.L1Cache_Controller.IS.Data_all_Acks::total       641870                      
system.ruby.L1Cache_Controller.IM.Data   |        1014     52.87%     52.87% |          94      4.90%     57.77% |         306     15.95%     73.72% |         504     26.28%    100.00%
system.ruby.L1Cache_Controller.IM.Data::total         1918                      
system.ruby.L1Cache_Controller.IM.Data_all_Acks |     1186995     29.47%     29.47% |       16714      0.41%     29.88% |     2801065     69.54%     99.42% |       23464      0.58%    100.00%
system.ruby.L1Cache_Controller.IM.Data_all_Acks::total      4028238                      
system.ruby.L1Cache_Controller.SM.Ack    |        8316     56.39%     56.39% |        1266      8.59%     64.98% |        2966     20.11%     85.09% |        2198     14.91%    100.00%
system.ruby.L1Cache_Controller.SM.Ack::total        14746                      
system.ruby.L1Cache_Controller.SM.Ack_all |        4640     47.62%     47.62% |        1092     11.21%     58.83% |        2117     21.73%     80.55% |        1895     19.45%    100.00%
system.ruby.L1Cache_Controller.SM.Ack_all::total         9744                      
system.ruby.L1Cache_Controller.M_I.WB_Ack |     4404876     28.33%     28.33% |       39153      0.25%     28.58% |    11063742     71.16%     99.74% |       40025      0.26%    100.00%
system.ruby.L1Cache_Controller.M_I.WB_Ack::total     15547796                      
system.ruby.L1Cache_Controller.S_IL0.L0_Invalidate_Own |      153987     24.38%     24.38% |       22989      3.64%     28.02% |      429567     68.02%     96.04% |       25028      3.96%    100.00%
system.ruby.L1Cache_Controller.S_IL0.L0_Invalidate_Own::total       631571                      
system.ruby.L1Cache_Controller.S_IL0.L0_Invalidate_Else |       19896     29.12%     29.12% |       18351     26.86%     55.98% |        7051     10.32%     66.30% |       23027     33.70%    100.00%
system.ruby.L1Cache_Controller.S_IL0.L0_Invalidate_Else::total        68325                      
system.ruby.L1Cache_Controller.S_IL0.L0_Ack |      173883     24.84%     24.84% |       41340      5.91%     30.75% |      436618     62.38%     93.13% |       48055      6.87%    100.00%
system.ruby.L1Cache_Controller.S_IL0.L0_Ack::total       699896                      
system.ruby.L1Cache_Controller.E_IL0.L0_DataAck |       49087     43.80%     43.80% |         875      0.78%     44.58% |       61044     54.47%     99.05% |        1065      0.95%    100.00%
system.ruby.L1Cache_Controller.E_IL0.L0_DataAck::total       112071                      
system.ruby.L1Cache_Controller.E_IL0.L0_Invalidate_Own |      203252     37.66%     37.66% |         471      0.09%     37.75% |      335671     62.19%     99.94% |         324      0.06%    100.00%
system.ruby.L1Cache_Controller.E_IL0.L0_Invalidate_Own::total       539718                      
system.ruby.L1Cache_Controller.E_IL0.L0_Invalidate_Else |        2487     10.12%     10.12% |       11195     45.56%     55.68% |        1816      7.39%     63.07% |        9074     36.93%    100.00%
system.ruby.L1Cache_Controller.E_IL0.L0_Invalidate_Else::total        24572                      
system.ruby.L1Cache_Controller.E_IL0.L0_Ack |      156652     34.64%     34.64% |       10791      2.39%     37.03% |      276443     61.13%     98.16% |        8333      1.84%    100.00%
system.ruby.L1Cache_Controller.E_IL0.L0_Ack::total       452219                      
system.ruby.L1Cache_Controller.M_IL0.L0_DataAck |      116743     43.38%     43.38% |        5799      2.15%     45.53% |      138850     51.59%     97.12% |        7749      2.88%    100.00%
system.ruby.L1Cache_Controller.M_IL0.L0_DataAck::total       269141                      
system.ruby.L1Cache_Controller.M_IL0.L0_Invalidate_Own |      141794     41.36%     41.36% |        1556      0.45%     41.81% |      198219     57.82%     99.63% |        1280      0.37%    100.00%
system.ruby.L1Cache_Controller.M_IL0.L0_Invalidate_Own::total       342849                      
system.ruby.L1Cache_Controller.M_IL0.L0_Invalidate_Else |        6023     23.72%     23.72% |        7740     30.48%     54.19% |        2399      9.45%     63.64% |        9234     36.36%    100.00%
system.ruby.L1Cache_Controller.M_IL0.L0_Invalidate_Else::total        25396                      
system.ruby.L1Cache_Controller.M_IL0.L0_Ack |       31074     31.35%     31.35% |        3497      3.53%     34.88% |       61768     62.33%     97.21% |        2765      2.79%    100.00%
system.ruby.L1Cache_Controller.M_IL0.L0_Ack::total        99104                      
system.ruby.L2Cache_Controller.L1_GETS       12335396      0.00%      0.00%
system.ruby.L2Cache_Controller.L1_GETX        4030160      0.00%      0.00%
system.ruby.L2Cache_Controller.L1_UPGRADE         7826      0.00%      0.00%
system.ruby.L2Cache_Controller.L1_PUTX       15547796      0.00%      0.00%
system.ruby.L2Cache_Controller.L2_Replacement      4361136      0.00%      0.00%
system.ruby.L2Cache_Controller.L2_Replacement_clean      4143919      0.00%      0.00%
system.ruby.L2Cache_Controller.Mem_Data       8506073      0.00%      0.00%
system.ruby.L2Cache_Controller.Mem_Ack        8505298      0.00%      0.00%
system.ruby.L2Cache_Controller.WB_Data          46955      0.00%      0.00%
system.ruby.L2Cache_Controller.WB_Data_clean        76418      0.00%      0.00%
system.ruby.L2Cache_Controller.Ack              67621      0.00%      0.00%
system.ruby.L2Cache_Controller.Ack_all          47861      0.00%      0.00%
system.ruby.L2Cache_Controller.Unblock          47085      0.00%      0.00%
system.ruby.L2Cache_Controller.Exclusive_Unblock     15684390      0.00%      0.00%
system.ruby.L2Cache_Controller.MEM_Inv            488      0.00%      0.00%
system.ruby.L2Cache_Controller.NP.L1_GETS      5097566      0.00%      0.00%
system.ruby.L2Cache_Controller.NP.L1_GETX      3408507      0.00%      0.00%
system.ruby.L2Cache_Controller.SS.L1_GETS       641852      0.00%      0.00%
system.ruby.L2Cache_Controller.SS.L1_GETX         1918      0.00%      0.00%
system.ruby.L2Cache_Controller.SS.L1_UPGRADE         7826      0.00%      0.00%
system.ruby.L2Cache_Controller.SS.L2_Replacement         1077      0.00%      0.00%
system.ruby.L2Cache_Controller.SS.L2_Replacement_clean        35697      0.00%      0.00%
system.ruby.L2Cache_Controller.SS.MEM_Inv           57      0.00%      0.00%
system.ruby.L2Cache_Controller.M.L1_GETS      6548851      0.00%      0.00%
system.ruby.L2Cache_Controller.M.L1_GETX       617473      0.00%      0.00%
system.ruby.L2Cache_Controller.M.L2_Replacement      4355841      0.00%      0.00%
system.ruby.L2Cache_Controller.M.L2_Replacement_clean      4025200      0.00%      0.00%
system.ruby.L2Cache_Controller.M.MEM_Inv          108      0.00%      0.00%
system.ruby.L2Cache_Controller.MT.L1_GETS        47085      0.00%      0.00%
system.ruby.L2Cache_Controller.MT.L1_GETX         2258      0.00%      0.00%
system.ruby.L2Cache_Controller.MT.L1_PUTX     15547796      0.00%      0.00%
system.ruby.L2Cache_Controller.MT.L2_Replacement         4218      0.00%      0.00%
system.ruby.L2Cache_Controller.MT.L2_Replacement_clean        83021      0.00%      0.00%
system.ruby.L2Cache_Controller.MT.MEM_Inv           79      0.00%      0.00%
system.ruby.L2Cache_Controller.M_I.L1_GETS            4      0.00%      0.00%
system.ruby.L2Cache_Controller.M_I.L1_GETX            2      0.00%      0.00%
system.ruby.L2Cache_Controller.M_I.Mem_Ack      8505298      0.00%      0.00%
system.ruby.L2Cache_Controller.M_I.MEM_Inv          108      0.00%      0.00%
system.ruby.L2Cache_Controller.MT_I.WB_Data         3382      0.00%      0.00%
system.ruby.L2Cache_Controller.MT_I.WB_Data_clean          496      0.00%      0.00%
system.ruby.L2Cache_Controller.MT_I.Ack_all          419      0.00%      0.00%
system.ruby.L2Cache_Controller.MT_I.MEM_Inv           79      0.00%      0.00%
system.ruby.L2Cache_Controller.MCT_I.WB_Data        37401      0.00%      0.00%
system.ruby.L2Cache_Controller.MCT_I.WB_Data_clean        35009      0.00%      0.00%
system.ruby.L2Cache_Controller.MCT_I.Ack_all        10611      0.00%      0.00%
system.ruby.L2Cache_Controller.I_I.Ack          66298      0.00%      0.00%
system.ruby.L2Cache_Controller.I_I.Ack_all        35697      0.00%      0.00%
system.ruby.L2Cache_Controller.S_I.Ack           1323      0.00%      0.00%
system.ruby.L2Cache_Controller.S_I.Ack_all         1134      0.00%      0.00%
system.ruby.L2Cache_Controller.S_I.MEM_Inv           57      0.00%      0.00%
system.ruby.L2Cache_Controller.ISS.L1_GETS            9      0.00%      0.00%
system.ruby.L2Cache_Controller.ISS.L2_Replacement_clean            1      0.00%      0.00%
system.ruby.L2Cache_Controller.ISS.Mem_Data      5097557      0.00%      0.00%
system.ruby.L2Cache_Controller.IS.Mem_Data            9      0.00%      0.00%
system.ruby.L2Cache_Controller.IM.Mem_Data      3408507      0.00%      0.00%
system.ruby.L2Cache_Controller.SS_MB.L1_GETS           14      0.00%      0.00%
system.ruby.L2Cache_Controller.SS_MB.L1_GETX            1      0.00%      0.00%
system.ruby.L2Cache_Controller.SS_MB.Exclusive_Unblock         9744      0.00%      0.00%
system.ruby.L2Cache_Controller.MT_MB.L1_GETS           13      0.00%      0.00%
system.ruby.L2Cache_Controller.MT_MB.L1_GETX            1      0.00%      0.00%
system.ruby.L2Cache_Controller.MT_MB.Exclusive_Unblock     15674646      0.00%      0.00%
system.ruby.L2Cache_Controller.MT_IIB.L1_GETS            2      0.00%      0.00%
system.ruby.L2Cache_Controller.MT_IIB.WB_Data         6157      0.00%      0.00%
system.ruby.L2Cache_Controller.MT_IIB.WB_Data_clean        40790      0.00%      0.00%
system.ruby.L2Cache_Controller.MT_IIB.Unblock          138      0.00%      0.00%
system.ruby.L2Cache_Controller.MT_IB.WB_Data           15      0.00%      0.00%
system.ruby.L2Cache_Controller.MT_IB.WB_Data_clean          123      0.00%      0.00%
system.ruby.L2Cache_Controller.MT_SB.Unblock        46947      0.00%      0.00%

---------- End Simulation Statistics   ----------
