
---------- Begin Simulation Statistics ----------
sim_seconds                                  1.196229                       # Number of seconds simulated
sim_ticks                                1196228595500                       # Number of ticks simulated
final_tick                               53599186563001                       # Number of ticks from beginning of simulation (restored from checkpoints and never reset)
sim_freq                                 1000000000000                       # Frequency of simulated ticks
host_inst_rate                                 126055                       # Simulator instruction rate (inst/s)
host_op_rate                                   168640                       # Simulator op (including micro ops) rate (op/s)
host_tick_rate                              278500931                       # Simulator tick rate (ticks/s)
host_mem_usage                                2319144                       # Number of bytes of host memory used
host_seconds                                  4295.24                       # Real time elapsed on the host
sim_insts                                   541435247                       # Number of instructions simulated
sim_ops                                     724349895                       # Number of ops (including micro ops) simulated
system.voltage_domain.voltage                       1                       # Voltage in Volts
system.clk_domain.clock                          1000                       # Clock period in ticks
system.mem_ctrls.bytes_read::ruby.dir_cntrl0    203227968                       # Number of bytes read from this memory
system.mem_ctrls.bytes_read::total          203227968                       # Number of bytes read from this memory
system.mem_ctrls.bytes_written::ruby.dir_cntrl0     99958656                       # Number of bytes written to this memory
system.mem_ctrls.bytes_written::total        99958656                       # Number of bytes written to this memory
system.mem_ctrls.num_reads::ruby.dir_cntrl0      3175437                       # Number of read requests responded to by this memory
system.mem_ctrls.num_reads::total             3175437                       # Number of read requests responded to by this memory
system.mem_ctrls.num_writes::ruby.dir_cntrl0      1561854                       # Number of write requests responded to by this memory
system.mem_ctrls.num_writes::total            1561854                       # Number of write requests responded to by this memory
system.mem_ctrls.bw_read::ruby.dir_cntrl0    169890578                       # Total read bandwidth from this memory (bytes/s)
system.mem_ctrls.bw_read::total             169890578                       # Total read bandwidth from this memory (bytes/s)
system.mem_ctrls.bw_write::ruby.dir_cntrl0     83561500                       # Write bandwidth from this memory (bytes/s)
system.mem_ctrls.bw_write::total             83561500                       # Write bandwidth from this memory (bytes/s)
system.mem_ctrls.bw_total::ruby.dir_cntrl0    253452079                       # Total bandwidth to/from this memory (bytes/s)
system.mem_ctrls.bw_total::total            253452079                       # Total bandwidth to/from this memory (bytes/s)
system.mem_ctrls.readReqs                     3175437                       # Number of read requests accepted
system.mem_ctrls.writeReqs                    1561854                       # Number of write requests accepted
system.mem_ctrls.readBursts                   3175437                       # Number of DRAM read bursts, including those serviced by the write queue
system.mem_ctrls.writeBursts                  1561854                       # Number of DRAM write bursts, including those merged in the write queue
system.mem_ctrls.bytesReadDRAM              203216832                       # Total number of bytes read from DRAM
system.mem_ctrls.bytesReadWrQ                   11136                       # Total number of bytes read from write queue
system.mem_ctrls.bytesWritten                99958208                       # Total number of bytes written to DRAM
system.mem_ctrls.bytesReadSys               203227968                       # Total read bytes from the system interface side
system.mem_ctrls.bytesWrittenSys             99958656                       # Total written bytes from the system interface side
system.mem_ctrls.servicedByWrQ                    174                       # Number of DRAM read bursts serviced by the write queue
system.mem_ctrls.mergedWrBursts                     0                       # Number of DRAM write bursts merged with an existing one
system.mem_ctrls.neitherReadNorWriteReqs            0                       # Number of requests that are neither read nor write
system.mem_ctrls.perBankRdBursts::0            198585                       # Per bank write bursts
system.mem_ctrls.perBankRdBursts::1            200720                       # Per bank write bursts
system.mem_ctrls.perBankRdBursts::2            198328                       # Per bank write bursts
system.mem_ctrls.perBankRdBursts::3            198234                       # Per bank write bursts
system.mem_ctrls.perBankRdBursts::4            199436                       # Per bank write bursts
system.mem_ctrls.perBankRdBursts::5            197621                       # Per bank write bursts
system.mem_ctrls.perBankRdBursts::6            196878                       # Per bank write bursts
system.mem_ctrls.perBankRdBursts::7            197669                       # Per bank write bursts
system.mem_ctrls.perBankRdBursts::8            199519                       # Per bank write bursts
system.mem_ctrls.perBankRdBursts::9            197501                       # Per bank write bursts
system.mem_ctrls.perBankRdBursts::10           198344                       # Per bank write bursts
system.mem_ctrls.perBankRdBursts::11           197492                       # Per bank write bursts
system.mem_ctrls.perBankRdBursts::12           198394                       # Per bank write bursts
system.mem_ctrls.perBankRdBursts::13           197843                       # Per bank write bursts
system.mem_ctrls.perBankRdBursts::14           199204                       # Per bank write bursts
system.mem_ctrls.perBankRdBursts::15           199495                       # Per bank write bursts
system.mem_ctrls.perBankWrBursts::0             97889                       # Per bank write bursts
system.mem_ctrls.perBankWrBursts::1             99031                       # Per bank write bursts
system.mem_ctrls.perBankWrBursts::2             97687                       # Per bank write bursts
system.mem_ctrls.perBankWrBursts::3             97224                       # Per bank write bursts
system.mem_ctrls.perBankWrBursts::4             98027                       # Per bank write bursts
system.mem_ctrls.perBankWrBursts::5             97389                       # Per bank write bursts
system.mem_ctrls.perBankWrBursts::6             96873                       # Per bank write bursts
system.mem_ctrls.perBankWrBursts::7             97268                       # Per bank write bursts
system.mem_ctrls.perBankWrBursts::8             98434                       # Per bank write bursts
system.mem_ctrls.perBankWrBursts::9             97200                       # Per bank write bursts
system.mem_ctrls.perBankWrBursts::10            97494                       # Per bank write bursts
system.mem_ctrls.perBankWrBursts::11            97286                       # Per bank write bursts
system.mem_ctrls.perBankWrBursts::12            97462                       # Per bank write bursts
system.mem_ctrls.perBankWrBursts::13            96961                       # Per bank write bursts
system.mem_ctrls.perBankWrBursts::14            97732                       # Per bank write bursts
system.mem_ctrls.perBankWrBursts::15            97890                       # Per bank write bursts
system.mem_ctrls.numRdRetry                         0                       # Number of times read queue was full causing retry
system.mem_ctrls.numWrRetry                         0                       # Number of times write queue was full causing retry
system.mem_ctrls.totGap                  1196228524500                       # Total gap between requests
system.mem_ctrls.readPktSize::0                     0                       # Read request sizes (log2)
system.mem_ctrls.readPktSize::1                     0                       # Read request sizes (log2)
system.mem_ctrls.readPktSize::2                     0                       # Read request sizes (log2)
system.mem_ctrls.readPktSize::3                     0                       # Read request sizes (log2)
system.mem_ctrls.readPktSize::4                     0                       # Read request sizes (log2)
system.mem_ctrls.readPktSize::5                     0                       # Read request sizes (log2)
system.mem_ctrls.readPktSize::6               3175437                       # Read request sizes (log2)
system.mem_ctrls.writePktSize::0                    0                       # Write request sizes (log2)
system.mem_ctrls.writePktSize::1                    0                       # Write request sizes (log2)
system.mem_ctrls.writePktSize::2                    0                       # Write request sizes (log2)
system.mem_ctrls.writePktSize::3                    0                       # Write request sizes (log2)
system.mem_ctrls.writePktSize::4                    0                       # Write request sizes (log2)
system.mem_ctrls.writePktSize::5                    0                       # Write request sizes (log2)
system.mem_ctrls.writePktSize::6              1561854                       # Write request sizes (log2)
system.mem_ctrls.rdQLenPdf::0                 3174193                       # What read queue length does an incoming req see
system.mem_ctrls.rdQLenPdf::1                    1069                       # What read queue length does an incoming req see
system.mem_ctrls.rdQLenPdf::2                       1                       # What read queue length does an incoming req see
system.mem_ctrls.rdQLenPdf::3                       0                       # What read queue length does an incoming req see
system.mem_ctrls.rdQLenPdf::4                       0                       # What read queue length does an incoming req see
system.mem_ctrls.rdQLenPdf::5                       0                       # What read queue length does an incoming req see
system.mem_ctrls.rdQLenPdf::6                       0                       # What read queue length does an incoming req see
system.mem_ctrls.rdQLenPdf::7                       0                       # What read queue length does an incoming req see
system.mem_ctrls.rdQLenPdf::8                       0                       # What read queue length does an incoming req see
system.mem_ctrls.rdQLenPdf::9                       0                       # What read queue length does an incoming req see
system.mem_ctrls.rdQLenPdf::10                      0                       # What read queue length does an incoming req see
system.mem_ctrls.rdQLenPdf::11                      0                       # What read queue length does an incoming req see
system.mem_ctrls.rdQLenPdf::12                      0                       # What read queue length does an incoming req see
system.mem_ctrls.rdQLenPdf::13                      0                       # What read queue length does an incoming req see
system.mem_ctrls.rdQLenPdf::14                      0                       # What read queue length does an incoming req see
system.mem_ctrls.rdQLenPdf::15                      0                       # What read queue length does an incoming req see
system.mem_ctrls.rdQLenPdf::16                      0                       # What read queue length does an incoming req see
system.mem_ctrls.rdQLenPdf::17                      0                       # What read queue length does an incoming req see
system.mem_ctrls.rdQLenPdf::18                      0                       # What read queue length does an incoming req see
system.mem_ctrls.rdQLenPdf::19                      0                       # What read queue length does an incoming req see
system.mem_ctrls.rdQLenPdf::20                      0                       # What read queue length does an incoming req see
system.mem_ctrls.rdQLenPdf::21                      0                       # What read queue length does an incoming req see
system.mem_ctrls.rdQLenPdf::22                      0                       # What read queue length does an incoming req see
system.mem_ctrls.rdQLenPdf::23                      0                       # What read queue length does an incoming req see
system.mem_ctrls.rdQLenPdf::24                      0                       # What read queue length does an incoming req see
system.mem_ctrls.rdQLenPdf::25                      0                       # What read queue length does an incoming req see
system.mem_ctrls.rdQLenPdf::26                      0                       # What read queue length does an incoming req see
system.mem_ctrls.rdQLenPdf::27                      0                       # What read queue length does an incoming req see
system.mem_ctrls.rdQLenPdf::28                      0                       # What read queue length does an incoming req see
system.mem_ctrls.rdQLenPdf::29                      0                       # What read queue length does an incoming req see
system.mem_ctrls.rdQLenPdf::30                      0                       # What read queue length does an incoming req see
system.mem_ctrls.rdQLenPdf::31                      0                       # What read queue length does an incoming req see
system.mem_ctrls.wrQLenPdf::0                       0                       # What write queue length does an incoming req see
system.mem_ctrls.wrQLenPdf::1                       0                       # What write queue length does an incoming req see
system.mem_ctrls.wrQLenPdf::2                       0                       # What write queue length does an incoming req see
system.mem_ctrls.wrQLenPdf::3                       0                       # What write queue length does an incoming req see
system.mem_ctrls.wrQLenPdf::4                       0                       # What write queue length does an incoming req see
system.mem_ctrls.wrQLenPdf::5                       0                       # What write queue length does an incoming req see
system.mem_ctrls.wrQLenPdf::6                       0                       # What write queue length does an incoming req see
system.mem_ctrls.wrQLenPdf::7                       0                       # What write queue length does an incoming req see
system.mem_ctrls.wrQLenPdf::8                       0                       # What write queue length does an incoming req see
system.mem_ctrls.wrQLenPdf::9                       0                       # What write queue length does an incoming req see
system.mem_ctrls.wrQLenPdf::10                      0                       # What write queue length does an incoming req see
system.mem_ctrls.wrQLenPdf::11                      0                       # What write queue length does an incoming req see
system.mem_ctrls.wrQLenPdf::12                      0                       # What write queue length does an incoming req see
system.mem_ctrls.wrQLenPdf::13                      0                       # What write queue length does an incoming req see
system.mem_ctrls.wrQLenPdf::14                      0                       # What write queue length does an incoming req see
system.mem_ctrls.wrQLenPdf::15                  18771                       # What write queue length does an incoming req see
system.mem_ctrls.wrQLenPdf::16                  23026                       # What write queue length does an incoming req see
system.mem_ctrls.wrQLenPdf::17                  72652                       # What write queue length does an incoming req see
system.mem_ctrls.wrQLenPdf::18                  92363                       # What write queue length does an incoming req see
system.mem_ctrls.wrQLenPdf::19                  96181                       # What write queue length does an incoming req see
system.mem_ctrls.wrQLenPdf::20                  96974                       # What write queue length does an incoming req see
system.mem_ctrls.wrQLenPdf::21                  97241                       # What write queue length does an incoming req see
system.mem_ctrls.wrQLenPdf::22                  97399                       # What write queue length does an incoming req see
system.mem_ctrls.wrQLenPdf::23                  97367                       # What write queue length does an incoming req see
system.mem_ctrls.wrQLenPdf::24                  97521                       # What write queue length does an incoming req see
system.mem_ctrls.wrQLenPdf::25                  97812                       # What write queue length does an incoming req see
system.mem_ctrls.wrQLenPdf::26                  97904                       # What write queue length does an incoming req see
system.mem_ctrls.wrQLenPdf::27                  97333                       # What write queue length does an incoming req see
system.mem_ctrls.wrQLenPdf::28                  97046                       # What write queue length does an incoming req see
system.mem_ctrls.wrQLenPdf::29                  96481                       # What write queue length does an incoming req see
system.mem_ctrls.wrQLenPdf::30                  95782                       # What write queue length does an incoming req see
system.mem_ctrls.wrQLenPdf::31                  94861                       # What write queue length does an incoming req see
system.mem_ctrls.wrQLenPdf::32                  94658                       # What write queue length does an incoming req see
system.mem_ctrls.wrQLenPdf::33                    382                       # What write queue length does an incoming req see
system.mem_ctrls.wrQLenPdf::34                     76                       # What write queue length does an incoming req see
system.mem_ctrls.wrQLenPdf::35                     14                       # What write queue length does an incoming req see
system.mem_ctrls.wrQLenPdf::36                      6                       # What write queue length does an incoming req see
system.mem_ctrls.wrQLenPdf::37                      3                       # What write queue length does an incoming req see
system.mem_ctrls.wrQLenPdf::38                      1                       # What write queue length does an incoming req see
system.mem_ctrls.wrQLenPdf::39                      0                       # What write queue length does an incoming req see
system.mem_ctrls.wrQLenPdf::40                      0                       # What write queue length does an incoming req see
system.mem_ctrls.wrQLenPdf::41                      0                       # What write queue length does an incoming req see
system.mem_ctrls.wrQLenPdf::42                      0                       # What write queue length does an incoming req see
system.mem_ctrls.wrQLenPdf::43                      0                       # What write queue length does an incoming req see
system.mem_ctrls.wrQLenPdf::44                      0                       # What write queue length does an incoming req see
system.mem_ctrls.wrQLenPdf::45                      0                       # What write queue length does an incoming req see
system.mem_ctrls.wrQLenPdf::46                      0                       # What write queue length does an incoming req see
system.mem_ctrls.wrQLenPdf::47                      0                       # What write queue length does an incoming req see
system.mem_ctrls.wrQLenPdf::48                      0                       # What write queue length does an incoming req see
system.mem_ctrls.wrQLenPdf::49                      0                       # What write queue length does an incoming req see
system.mem_ctrls.wrQLenPdf::50                      0                       # What write queue length does an incoming req see
system.mem_ctrls.wrQLenPdf::51                      0                       # What write queue length does an incoming req see
system.mem_ctrls.wrQLenPdf::52                      0                       # What write queue length does an incoming req see
system.mem_ctrls.wrQLenPdf::53                      0                       # What write queue length does an incoming req see
system.mem_ctrls.wrQLenPdf::54                      0                       # What write queue length does an incoming req see
system.mem_ctrls.wrQLenPdf::55                      0                       # What write queue length does an incoming req see
system.mem_ctrls.wrQLenPdf::56                      0                       # What write queue length does an incoming req see
system.mem_ctrls.wrQLenPdf::57                      0                       # What write queue length does an incoming req see
system.mem_ctrls.wrQLenPdf::58                      0                       # What write queue length does an incoming req see
system.mem_ctrls.wrQLenPdf::59                      0                       # What write queue length does an incoming req see
system.mem_ctrls.wrQLenPdf::60                      0                       # What write queue length does an incoming req see
system.mem_ctrls.wrQLenPdf::61                      0                       # What write queue length does an incoming req see
system.mem_ctrls.wrQLenPdf::62                      0                       # What write queue length does an incoming req see
system.mem_ctrls.wrQLenPdf::63                      0                       # What write queue length does an incoming req see
system.mem_ctrls.bytesPerActivate::samples      2090568                       # Bytes accessed per row activation
system.mem_ctrls.bytesPerActivate::mean    145.020477                       # Bytes accessed per row activation
system.mem_ctrls.bytesPerActivate::gmean    96.819911                       # Bytes accessed per row activation
system.mem_ctrls.bytesPerActivate::stdev   205.889451                       # Bytes accessed per row activation
system.mem_ctrls.bytesPerActivate::0-127      1376899     65.86%     65.86% # Bytes accessed per row activation
system.mem_ctrls.bytesPerActivate::128-255       473720     22.66%     88.52% # Bytes accessed per row activation
system.mem_ctrls.bytesPerActivate::256-383        71777      3.43%     91.96% # Bytes accessed per row activation
system.mem_ctrls.bytesPerActivate::384-511        29150      1.39%     93.35% # Bytes accessed per row activation
system.mem_ctrls.bytesPerActivate::512-639        24246      1.16%     94.51% # Bytes accessed per row activation
system.mem_ctrls.bytesPerActivate::640-767        18616      0.89%     95.40% # Bytes accessed per row activation
system.mem_ctrls.bytesPerActivate::768-895        13703      0.66%     96.06% # Bytes accessed per row activation
system.mem_ctrls.bytesPerActivate::896-1023        13136      0.63%     96.68% # Bytes accessed per row activation
system.mem_ctrls.bytesPerActivate::1024-1151        69321      3.32%    100.00% # Bytes accessed per row activation
system.mem_ctrls.bytesPerActivate::total      2090568                       # Bytes accessed per row activation
system.mem_ctrls.rdPerTurnAround::samples        94645                       # Reads before turning the bus around for writes
system.mem_ctrls.rdPerTurnAround::mean      33.549379                       # Reads before turning the bus around for writes
system.mem_ctrls.rdPerTurnAround::stdev     33.502928                       # Reads before turning the bus around for writes
system.mem_ctrls.rdPerTurnAround::0-31          56751     59.96%     59.96% # Reads before turning the bus around for writes
system.mem_ctrls.rdPerTurnAround::32-63         28106     29.70%     89.66% # Reads before turning the bus around for writes
system.mem_ctrls.rdPerTurnAround::64-95          5622      5.94%     95.60% # Reads before turning the bus around for writes
system.mem_ctrls.rdPerTurnAround::96-127         2160      2.28%     97.88% # Reads before turning the bus around for writes
system.mem_ctrls.rdPerTurnAround::128-159         1103      1.17%     99.05% # Reads before turning the bus around for writes
system.mem_ctrls.rdPerTurnAround::160-191          350      0.37%     99.42% # Reads before turning the bus around for writes
system.mem_ctrls.rdPerTurnAround::192-223          189      0.20%     99.62% # Reads before turning the bus around for writes
system.mem_ctrls.rdPerTurnAround::224-255          100      0.11%     99.72% # Reads before turning the bus around for writes
system.mem_ctrls.rdPerTurnAround::256-287           79      0.08%     99.80% # Reads before turning the bus around for writes
system.mem_ctrls.rdPerTurnAround::288-319           45      0.05%     99.85% # Reads before turning the bus around for writes
system.mem_ctrls.rdPerTurnAround::320-351           33      0.03%     99.89% # Reads before turning the bus around for writes
system.mem_ctrls.rdPerTurnAround::352-383           16      0.02%     99.90% # Reads before turning the bus around for writes
system.mem_ctrls.rdPerTurnAround::384-415           20      0.02%     99.92% # Reads before turning the bus around for writes
system.mem_ctrls.rdPerTurnAround::416-447           10      0.01%     99.94% # Reads before turning the bus around for writes
system.mem_ctrls.rdPerTurnAround::448-479            9      0.01%     99.95% # Reads before turning the bus around for writes
system.mem_ctrls.rdPerTurnAround::480-511           10      0.01%     99.96% # Reads before turning the bus around for writes
system.mem_ctrls.rdPerTurnAround::512-543           17      0.02%     99.97% # Reads before turning the bus around for writes
system.mem_ctrls.rdPerTurnAround::544-575            8      0.01%     99.98% # Reads before turning the bus around for writes
system.mem_ctrls.rdPerTurnAround::576-607            6      0.01%     99.99% # Reads before turning the bus around for writes
system.mem_ctrls.rdPerTurnAround::608-639            2      0.00%     99.99% # Reads before turning the bus around for writes
system.mem_ctrls.rdPerTurnAround::640-671            2      0.00%     99.99% # Reads before turning the bus around for writes
system.mem_ctrls.rdPerTurnAround::672-703            5      0.01%    100.00% # Reads before turning the bus around for writes
system.mem_ctrls.rdPerTurnAround::704-735            2      0.00%    100.00% # Reads before turning the bus around for writes
system.mem_ctrls.rdPerTurnAround::total         94645                       # Reads before turning the bus around for writes
system.mem_ctrls.wrPerTurnAround::samples        94645                       # Writes before turning the bus around for reads
system.mem_ctrls.wrPerTurnAround::mean      16.502161                       # Writes before turning the bus around for reads
system.mem_ctrls.wrPerTurnAround::gmean     16.476286                       # Writes before turning the bus around for reads
system.mem_ctrls.wrPerTurnAround::stdev      0.956996                       # Writes before turning the bus around for reads
system.mem_ctrls.wrPerTurnAround::16            71413     75.45%     75.45% # Writes before turning the bus around for reads
system.mem_ctrls.wrPerTurnAround::17             3501      3.70%     79.15% # Writes before turning the bus around for reads
system.mem_ctrls.wrPerTurnAround::18            16586     17.52%     96.68% # Writes before turning the bus around for reads
system.mem_ctrls.wrPerTurnAround::19             2313      2.44%     99.12% # Writes before turning the bus around for reads
system.mem_ctrls.wrPerTurnAround::20              537      0.57%     99.69% # Writes before turning the bus around for reads
system.mem_ctrls.wrPerTurnAround::21              159      0.17%     99.86% # Writes before turning the bus around for reads
system.mem_ctrls.wrPerTurnAround::22               64      0.07%     99.92% # Writes before turning the bus around for reads
system.mem_ctrls.wrPerTurnAround::23               33      0.03%     99.96% # Writes before turning the bus around for reads
system.mem_ctrls.wrPerTurnAround::24               22      0.02%     99.98% # Writes before turning the bus around for reads
system.mem_ctrls.wrPerTurnAround::25                6      0.01%     99.99% # Writes before turning the bus around for reads
system.mem_ctrls.wrPerTurnAround::26                4      0.00%     99.99% # Writes before turning the bus around for reads
system.mem_ctrls.wrPerTurnAround::27                3      0.00%    100.00% # Writes before turning the bus around for reads
system.mem_ctrls.wrPerTurnAround::28                2      0.00%    100.00% # Writes before turning the bus around for reads
system.mem_ctrls.wrPerTurnAround::31                2      0.00%    100.00% # Writes before turning the bus around for reads
system.mem_ctrls.wrPerTurnAround::total         94645                       # Writes before turning the bus around for reads
system.mem_ctrls.totQLat                  52060128749                       # Total ticks spent queuing
system.mem_ctrls.totMemAccLat            111596309999                       # Total ticks spent from burst creation until serviced by the DRAM
system.mem_ctrls.totBusLat                15876315000                       # Total ticks spent in databus transfers
system.mem_ctrls.avgQLat                     16395.53                       # Average queueing delay per DRAM burst
system.mem_ctrls.avgBusLat                    5000.00                       # Average bus latency per DRAM burst
system.mem_ctrls.avgMemAccLat                35145.53                       # Average memory access latency per DRAM burst
system.mem_ctrls.avgRdBW                       169.88                       # Average DRAM read bandwidth in MiByte/s
system.mem_ctrls.avgWrBW                        83.56                       # Average achieved write bandwidth in MiByte/s
system.mem_ctrls.avgRdBWSys                    169.89                       # Average system read bandwidth in MiByte/s
system.mem_ctrls.avgWrBWSys                     83.56                       # Average system write bandwidth in MiByte/s
system.mem_ctrls.peakBW                      12800.00                       # Theoretical peak bandwidth in MiByte/s
system.mem_ctrls.busUtil                         1.98                       # Data bus utilization in percentage
system.mem_ctrls.busUtilRead                     1.33                       # Data bus utilization in percentage for reads
system.mem_ctrls.busUtilWrite                    0.65                       # Data bus utilization in percentage for writes
system.mem_ctrls.avgRdQLen                       1.00                       # Average read queue length when enqueuing
system.mem_ctrls.avgWrQLen                      25.23                       # Average write queue length when enqueuing
system.mem_ctrls.readRowHits                  1908499                       # Number of row buffer hits during reads
system.mem_ctrls.writeRowHits                  738043                       # Number of row buffer hits during writes
system.mem_ctrls.readRowHitRate                 60.11                       # Row buffer hit rate for reads
system.mem_ctrls.writeRowHitRate                47.25                       # Row buffer hit rate for writes
system.mem_ctrls.avgGap                     252513.20                       # Average gap between requests
system.mem_ctrls.pageHitRate                    55.87                       # Row buffer hit rate, read and write combined
system.mem_ctrls_0.actEnergy               7934855040                       # Energy for activate commands per rank (pJ)
system.mem_ctrls_0.preEnergy               4329534000                       # Energy for precharge commands per rank (pJ)
system.mem_ctrls_0.readEnergy             12522751800                       # Energy for read commands per rank (pJ)
system.mem_ctrls_0.writeEnergy             5065040160                       # Energy for write commands per rank (pJ)
system.mem_ctrls_0.refreshEnergy          78602016480                       # Energy for refresh commands per rank (pJ)
system.mem_ctrls_0.actBackEnergy         285742019160                       # Energy for active background per rank (pJ)
system.mem_ctrls_0.preBackEnergy         471405598500                       # Energy for precharge background per rank (pJ)
system.mem_ctrls_0.totalEnergy           865601815140                       # Total energy per rank (pJ)
system.mem_ctrls_0.averagePower            719.280409                       # Core power per rank (mW)
system.mem_ctrls_0.memoryStateTime::IDLE 776813965750                       # Time in different power states
system.mem_ctrls_0.memoryStateTime::REF   39944580000                       # Time in different power states
system.mem_ctrls_0.memoryStateTime::PRE_PDN            0                       # Time in different power states
system.mem_ctrls_0.memoryStateTime::ACT  379470158750                       # Time in different power states
system.mem_ctrls_0.memoryStateTime::ACT_PDN            0                       # Time in different power states
system.mem_ctrls_1.actEnergy               7914881520                       # Energy for activate commands per rank (pJ)
system.mem_ctrls_1.preEnergy               4318635750                       # Energy for precharge commands per rank (pJ)
system.mem_ctrls_1.readEnergy             12518867400                       # Energy for read commands per rank (pJ)
system.mem_ctrls_1.writeEnergy             5058093600                       # Energy for write commands per rank (pJ)
system.mem_ctrls_1.refreshEnergy          78602016480                       # Energy for refresh commands per rank (pJ)
system.mem_ctrls_1.actBackEnergy         285585488325                       # Energy for active background per rank (pJ)
system.mem_ctrls_1.preBackEnergy         471542906250                       # Energy for precharge background per rank (pJ)
system.mem_ctrls_1.totalEnergy           865540889325                       # Total energy per rank (pJ)
system.mem_ctrls_1.averagePower            719.229782                       # Core power per rank (mW)
system.mem_ctrls_1.memoryStateTime::IDLE 777297426750                       # Time in different power states
system.mem_ctrls_1.memoryStateTime::REF   39944580000                       # Time in different power states
system.mem_ctrls_1.memoryStateTime::PRE_PDN            0                       # Time in different power states
system.mem_ctrls_1.memoryStateTime::ACT  378982939500                       # Time in different power states
system.mem_ctrls_1.memoryStateTime::ACT_PDN            0                       # Time in different power states
system.cpu_voltage_domain.voltage                   1                       # Voltage in Volts
system.cpu_clk_domain.clock                       500                       # Clock period in ticks
system.cpu0.apic_clk_domain.clock                8000                       # Clock period in ticks
system.cpu0.numCycles                      2390501748                       # number of cpu cycles simulated
system.cpu0.numWorkItemsStarted                     0                       # number of work items this cpu started
system.cpu0.numWorkItemsCompleted                   0                       # number of work items this cpu completed
system.cpu0.kern.inst.arm                           0                       # number of arm instructions executed
system.cpu0.kern.inst.quiesce                       0                       # number of quiesce instructions executed
system.cpu0.committedInsts                    3090790                       # Number of instructions committed
system.cpu0.committedOps                      6182133                       # Number of ops (including micro ops) committed
system.cpu0.num_int_alu_accesses              6073890                       # Number of integer alu accesses
system.cpu0.num_fp_alu_accesses                  1826                       # Number of float alu accesses
system.cpu0.num_func_calls                     164794                       # number of times a function call or return occured
system.cpu0.num_conditional_control_insts       506721                       # number of instructions that are conditional controls
system.cpu0.num_int_insts                     6073890                       # number of integer instructions
system.cpu0.num_fp_insts                         1826                       # number of float instructions
system.cpu0.num_int_register_reads           12112140                       # number of times the integer registers were read
system.cpu0.num_int_register_writes           4935202                       # number of times the integer registers were written
system.cpu0.num_fp_register_reads                3068                       # number of times the floating registers were read
system.cpu0.num_fp_register_writes               1448                       # number of times the floating registers were written
system.cpu0.num_cc_register_reads             3816647                       # number of times the CC registers were read
system.cpu0.num_cc_register_writes            2102069                       # number of times the CC registers were written
system.cpu0.num_mem_refs                      1396631                       # number of memory refs
system.cpu0.num_load_insts                     900373                       # Number of load instructions
system.cpu0.num_store_insts                    496258                       # Number of store instructions
system.cpu0.num_idle_cycles              2376965684.573072                       # Number of idle cycles
system.cpu0.num_busy_cycles              13536063.426928                       # Number of busy cycles
system.cpu0.not_idle_fraction                0.005662                       # Percentage of non-idle cycles
system.cpu0.idle_fraction                    0.994338                       # Percentage of idle cycles
system.cpu0.Branches                           702244                       # Number of branches fetched
system.cpu0.op_class::No_OpClass                39834      0.64%      0.64% # Class of executed instruction
system.cpu0.op_class::IntAlu                  4727524     76.47%     77.11% # Class of executed instruction
system.cpu0.op_class::IntMult                    4926      0.08%     77.19% # Class of executed instruction
system.cpu0.op_class::IntDiv                    11933      0.19%     77.39% # Class of executed instruction
system.cpu0.op_class::FloatAdd                   1376      0.02%     77.41% # Class of executed instruction
system.cpu0.op_class::FloatCmp                      0      0.00%     77.41% # Class of executed instruction
system.cpu0.op_class::FloatCvt                      0      0.00%     77.41% # Class of executed instruction
system.cpu0.op_class::FloatMult                     0      0.00%     77.41% # Class of executed instruction
system.cpu0.op_class::FloatDiv                      0      0.00%     77.41% # Class of executed instruction
system.cpu0.op_class::FloatSqrt                     0      0.00%     77.41% # Class of executed instruction
system.cpu0.op_class::SimdAdd                       0      0.00%     77.41% # Class of executed instruction
system.cpu0.op_class::SimdAddAcc                    0      0.00%     77.41% # Class of executed instruction
system.cpu0.op_class::SimdAlu                       0      0.00%     77.41% # Class of executed instruction
system.cpu0.op_class::SimdCmp                       0      0.00%     77.41% # Class of executed instruction
system.cpu0.op_class::SimdCvt                       0      0.00%     77.41% # Class of executed instruction
system.cpu0.op_class::SimdMisc                      0      0.00%     77.41% # Class of executed instruction
system.cpu0.op_class::SimdMult                      0      0.00%     77.41% # Class of executed instruction
system.cpu0.op_class::SimdMultAcc                   0      0.00%     77.41% # Class of executed instruction
system.cpu0.op_class::SimdShift                     0      0.00%     77.41% # Class of executed instruction
system.cpu0.op_class::SimdShiftAcc                  0      0.00%     77.41% # Class of executed instruction
system.cpu0.op_class::SimdSqrt                      0      0.00%     77.41% # Class of executed instruction
system.cpu0.op_class::SimdFloatAdd                  0      0.00%     77.41% # Class of executed instruction
system.cpu0.op_class::SimdFloatAlu                  0      0.00%     77.41% # Class of executed instruction
system.cpu0.op_class::SimdFloatCmp                  0      0.00%     77.41% # Class of executed instruction
system.cpu0.op_class::SimdFloatCvt                  0      0.00%     77.41% # Class of executed instruction
system.cpu0.op_class::SimdFloatDiv                  0      0.00%     77.41% # Class of executed instruction
system.cpu0.op_class::SimdFloatMisc                 0      0.00%     77.41% # Class of executed instruction
system.cpu0.op_class::SimdFloatMult                 0      0.00%     77.41% # Class of executed instruction
system.cpu0.op_class::SimdFloatMultAcc              0      0.00%     77.41% # Class of executed instruction
system.cpu0.op_class::SimdFloatSqrt                 0      0.00%     77.41% # Class of executed instruction
system.cpu0.op_class::MemRead                  900373     14.56%     91.97% # Class of executed instruction
system.cpu0.op_class::MemWrite                 496258      8.03%    100.00% # Class of executed instruction
system.cpu0.op_class::IprAccess                     0      0.00%    100.00% # Class of executed instruction
system.cpu0.op_class::InstPrefetch                  0      0.00%    100.00% # Class of executed instruction
system.cpu0.op_class::total                   6182224                       # Class of executed instruction
system.cpu1.apic_clk_domain.clock                8000                       # Clock period in ticks
system.cpu1.numCycles                      2396140275                       # number of cpu cycles simulated
system.cpu1.numWorkItemsStarted                     0                       # number of work items this cpu started
system.cpu1.numWorkItemsCompleted                   0                       # number of work items this cpu completed
system.cpu1.kern.inst.arm                           0                       # number of arm instructions executed
system.cpu1.kern.inst.quiesce                       0                       # number of quiesce instructions executed
system.cpu1.committedInsts                     877999                       # Number of instructions committed
system.cpu1.committedOps                      1874168                       # Number of ops (including micro ops) committed
system.cpu1.num_int_alu_accesses              1831681                       # Number of integer alu accesses
system.cpu1.num_fp_alu_accesses                    39                       # Number of float alu accesses
system.cpu1.num_func_calls                      51774                       # number of times a function call or return occured
system.cpu1.num_conditional_control_insts       131410                       # number of instructions that are conditional controls
system.cpu1.num_int_insts                     1831681                       # number of integer instructions
system.cpu1.num_fp_insts                           39                       # number of float instructions
system.cpu1.num_int_register_reads            3724120                       # number of times the integer registers were read
system.cpu1.num_int_register_writes           1513038                       # number of times the integer registers were written
system.cpu1.num_fp_register_reads                  63                       # number of times the floating registers were read
system.cpu1.num_fp_register_writes                 31                       # number of times the floating registers were written
system.cpu1.num_cc_register_reads             1024094                       # number of times the CC registers were read
system.cpu1.num_cc_register_writes             550936                       # number of times the CC registers were written
system.cpu1.num_mem_refs                       450348                       # number of memory refs
system.cpu1.num_load_insts                     281703                       # Number of load instructions
system.cpu1.num_store_insts                    168645                       # Number of store instructions
system.cpu1.num_idle_cycles              2392231596.007396                       # Number of idle cycles
system.cpu1.num_busy_cycles              3908678.992604                       # Number of busy cycles
system.cpu1.not_idle_fraction                0.001631                       # Percentage of non-idle cycles
system.cpu1.idle_fraction                    0.998369                       # Percentage of idle cycles
system.cpu1.Branches                           199913                       # Number of branches fetched
system.cpu1.op_class::No_OpClass                30574      1.63%      1.63% # Class of executed instruction
system.cpu1.op_class::IntAlu                  1378422     73.55%     75.18% # Class of executed instruction
system.cpu1.op_class::IntMult                    4506      0.24%     75.42% # Class of executed instruction
system.cpu1.op_class::IntDiv                    10310      0.55%     75.97% # Class of executed instruction
system.cpu1.op_class::FloatAdd                     30      0.00%     75.97% # Class of executed instruction
system.cpu1.op_class::FloatCmp                      0      0.00%     75.97% # Class of executed instruction
system.cpu1.op_class::FloatCvt                      0      0.00%     75.97% # Class of executed instruction
system.cpu1.op_class::FloatMult                     0      0.00%     75.97% # Class of executed instruction
system.cpu1.op_class::FloatDiv                      0      0.00%     75.97% # Class of executed instruction
system.cpu1.op_class::FloatSqrt                     0      0.00%     75.97% # Class of executed instruction
system.cpu1.op_class::SimdAdd                       0      0.00%     75.97% # Class of executed instruction
system.cpu1.op_class::SimdAddAcc                    0      0.00%     75.97% # Class of executed instruction
system.cpu1.op_class::SimdAlu                       0      0.00%     75.97% # Class of executed instruction
system.cpu1.op_class::SimdCmp                       0      0.00%     75.97% # Class of executed instruction
system.cpu1.op_class::SimdCvt                       0      0.00%     75.97% # Class of executed instruction
system.cpu1.op_class::SimdMisc                      0      0.00%     75.97% # Class of executed instruction
system.cpu1.op_class::SimdMult                      0      0.00%     75.97% # Class of executed instruction
system.cpu1.op_class::SimdMultAcc                   0      0.00%     75.97% # Class of executed instruction
system.cpu1.op_class::SimdShift                     0      0.00%     75.97% # Class of executed instruction
system.cpu1.op_class::SimdShiftAcc                  0      0.00%     75.97% # Class of executed instruction
system.cpu1.op_class::SimdSqrt                      0      0.00%     75.97% # Class of executed instruction
system.cpu1.op_class::SimdFloatAdd                  0      0.00%     75.97% # Class of executed instruction
system.cpu1.op_class::SimdFloatAlu                  0      0.00%     75.97% # Class of executed instruction
system.cpu1.op_class::SimdFloatCmp                  0      0.00%     75.97% # Class of executed instruction
system.cpu1.op_class::SimdFloatCvt                  0      0.00%     75.97% # Class of executed instruction
system.cpu1.op_class::SimdFloatDiv                  0      0.00%     75.97% # Class of executed instruction
system.cpu1.op_class::SimdFloatMisc                 0      0.00%     75.97% # Class of executed instruction
system.cpu1.op_class::SimdFloatMult                 0      0.00%     75.97% # Class of executed instruction
system.cpu1.op_class::SimdFloatMultAcc              0      0.00%     75.97% # Class of executed instruction
system.cpu1.op_class::SimdFloatSqrt                 0      0.00%     75.97% # Class of executed instruction
system.cpu1.op_class::MemRead                  281703     15.03%     91.00% # Class of executed instruction
system.cpu1.op_class::MemWrite                 168645      9.00%    100.00% # Class of executed instruction
system.cpu1.op_class::IprAccess                     0      0.00%    100.00% # Class of executed instruction
system.cpu1.op_class::InstPrefetch                  0      0.00%    100.00% # Class of executed instruction
system.cpu1.op_class::total                   1874190                       # Class of executed instruction
system.cpu2.apic_clk_domain.clock                8000                       # Clock period in ticks
system.cpu2.numCycles                      2394420506                       # number of cpu cycles simulated
system.cpu2.numWorkItemsStarted                     0                       # number of work items this cpu started
system.cpu2.numWorkItemsCompleted                   0                       # number of work items this cpu completed
system.cpu2.kern.inst.arm                           0                       # number of arm instructions executed
system.cpu2.kern.inst.quiesce                       0                       # number of quiesce instructions executed
system.cpu2.committedInsts                  533856667                       # Number of instructions committed
system.cpu2.committedOps                    709184903                       # Number of ops (including micro ops) committed
system.cpu2.num_int_alu_accesses            508807536                       # Number of integer alu accesses
system.cpu2.num_fp_alu_accesses             331101068                       # Number of float alu accesses
system.cpu2.num_func_calls                     433165                       # number of times a function call or return occured
system.cpu2.num_conditional_control_insts     31467229                       # number of instructions that are conditional controls
system.cpu2.num_int_insts                   508807536                       # number of integer instructions
system.cpu2.num_fp_insts                    331101068                       # number of float instructions
system.cpu2.num_int_register_reads         1070122738                       # number of times the integer registers were read
system.cpu2.num_int_register_writes         339846477                       # number of times the integer registers were written
system.cpu2.num_fp_register_reads           564014582                       # number of times the floating registers were read
system.cpu2.num_fp_register_writes          276695748                       # number of times the floating registers were written
system.cpu2.num_cc_register_reads           220290834                       # number of times the CC registers were read
system.cpu2.num_cc_register_writes          241361062                       # number of times the CC registers were written
system.cpu2.num_mem_refs                    152840185                       # number of memory refs
system.cpu2.num_load_insts                   94763337                       # Number of load instructions
system.cpu2.num_store_insts                  58076848                       # Number of store instructions
system.cpu2.num_idle_cycles              9477696.274263                       # Number of idle cycles
system.cpu2.num_busy_cycles              2384942809.725737                       # Number of busy cycles
system.cpu2.not_idle_fraction                0.996042                       # Percentage of non-idle cycles
system.cpu2.idle_fraction                    0.003958                       # Percentage of idle cycles
system.cpu2.Branches                         33879664                       # Number of branches fetched
system.cpu2.op_class::No_OpClass               955273      0.13%      0.13% # Class of executed instruction
system.cpu2.op_class::IntAlu                444078283     62.62%     62.75% # Class of executed instruction
system.cpu2.op_class::IntMult                   24561      0.00%     62.76% # Class of executed instruction
system.cpu2.op_class::IntDiv                   145171      0.02%     62.78% # Class of executed instruction
system.cpu2.op_class::FloatAdd              111149730     15.67%     78.45% # Class of executed instruction
system.cpu2.op_class::FloatCmp                      0      0.00%     78.45% # Class of executed instruction
system.cpu2.op_class::FloatCvt                      0      0.00%     78.45% # Class of executed instruction
system.cpu2.op_class::FloatMult                     0      0.00%     78.45% # Class of executed instruction
system.cpu2.op_class::FloatDiv                      0      0.00%     78.45% # Class of executed instruction
system.cpu2.op_class::FloatSqrt                     0      0.00%     78.45% # Class of executed instruction
system.cpu2.op_class::SimdAdd                       0      0.00%     78.45% # Class of executed instruction
system.cpu2.op_class::SimdAddAcc                    0      0.00%     78.45% # Class of executed instruction
system.cpu2.op_class::SimdAlu                       0      0.00%     78.45% # Class of executed instruction
system.cpu2.op_class::SimdCmp                       0      0.00%     78.45% # Class of executed instruction
system.cpu2.op_class::SimdCvt                       0      0.00%     78.45% # Class of executed instruction
system.cpu2.op_class::SimdMisc                      0      0.00%     78.45% # Class of executed instruction
system.cpu2.op_class::SimdMult                      0      0.00%     78.45% # Class of executed instruction
system.cpu2.op_class::SimdMultAcc                   0      0.00%     78.45% # Class of executed instruction
system.cpu2.op_class::SimdShift                     0      0.00%     78.45% # Class of executed instruction
system.cpu2.op_class::SimdShiftAcc                  0      0.00%     78.45% # Class of executed instruction
system.cpu2.op_class::SimdSqrt                      0      0.00%     78.45% # Class of executed instruction
system.cpu2.op_class::SimdFloatAdd                  0      0.00%     78.45% # Class of executed instruction
system.cpu2.op_class::SimdFloatAlu                  0      0.00%     78.45% # Class of executed instruction
system.cpu2.op_class::SimdFloatCmp                  0      0.00%     78.45% # Class of executed instruction
system.cpu2.op_class::SimdFloatCvt                  0      0.00%     78.45% # Class of executed instruction
system.cpu2.op_class::SimdFloatDiv                  0      0.00%     78.45% # Class of executed instruction
system.cpu2.op_class::SimdFloatMisc                 0      0.00%     78.45% # Class of executed instruction
system.cpu2.op_class::SimdFloatMult                 0      0.00%     78.45% # Class of executed instruction
system.cpu2.op_class::SimdFloatMultAcc              0      0.00%     78.45% # Class of executed instruction
system.cpu2.op_class::SimdFloatSqrt                 0      0.00%     78.45% # Class of executed instruction
system.cpu2.op_class::MemRead                94763337     13.36%     91.81% # Class of executed instruction
system.cpu2.op_class::MemWrite               58076848      8.19%    100.00% # Class of executed instruction
system.cpu2.op_class::IprAccess                     0      0.00%    100.00% # Class of executed instruction
system.cpu2.op_class::InstPrefetch                  0      0.00%    100.00% # Class of executed instruction
system.cpu2.op_class::total                 709193203                       # Class of executed instruction
system.cpu3.apic_clk_domain.clock                8000                       # Clock period in ticks
system.cpu3.numCycles                      2390707428                       # number of cpu cycles simulated
system.cpu3.numWorkItemsStarted                     0                       # number of work items this cpu started
system.cpu3.numWorkItemsCompleted                   0                       # number of work items this cpu completed
system.cpu3.kern.inst.arm                           0                       # number of arm instructions executed
system.cpu3.kern.inst.quiesce                       0                       # number of quiesce instructions executed
system.cpu3.committedInsts                     785399                       # Number of instructions committed
system.cpu3.committedOps                      1698707                       # Number of ops (including micro ops) committed
system.cpu3.num_int_alu_accesses              1662603                       # Number of integer alu accesses
system.cpu3.num_fp_alu_accesses                     0                       # Number of float alu accesses
system.cpu3.num_func_calls                      47702                       # number of times a function call or return occured
system.cpu3.num_conditional_control_insts       116984                       # number of instructions that are conditional controls
system.cpu3.num_int_insts                     1662603                       # number of integer instructions
system.cpu3.num_fp_insts                            0                       # number of float instructions
system.cpu3.num_int_register_reads            3376875                       # number of times the integer registers were read
system.cpu3.num_int_register_writes           1378232                       # number of times the integer registers were written
system.cpu3.num_fp_register_reads                   0                       # number of times the floating registers were read
system.cpu3.num_fp_register_writes                  0                       # number of times the floating registers were written
system.cpu3.num_cc_register_reads              937601                       # number of times the CC registers were read
system.cpu3.num_cc_register_writes             499100                       # number of times the CC registers were written
system.cpu3.num_mem_refs                       407476                       # number of memory refs
system.cpu3.num_load_insts                     253704                       # Number of load instructions
system.cpu3.num_store_insts                    153772                       # Number of store instructions
system.cpu3.num_idle_cycles              2387219853.561910                       # Number of idle cycles
system.cpu3.num_busy_cycles              3487574.438090                       # Number of busy cycles
system.cpu3.not_idle_fraction                0.001459                       # Percentage of non-idle cycles
system.cpu3.idle_fraction                    0.998541                       # Percentage of idle cycles
system.cpu3.Branches                           180074                       # Number of branches fetched
system.cpu3.op_class::No_OpClass                30226      1.78%      1.78% # Class of executed instruction
system.cpu3.op_class::IntAlu                  1246736     73.39%     75.17% # Class of executed instruction
system.cpu3.op_class::IntMult                    3534      0.21%     75.38% # Class of executed instruction
system.cpu3.op_class::IntDiv                    10738      0.63%     76.01% # Class of executed instruction
system.cpu3.op_class::FloatAdd                      0      0.00%     76.01% # Class of executed instruction
system.cpu3.op_class::FloatCmp                      0      0.00%     76.01% # Class of executed instruction
system.cpu3.op_class::FloatCvt                      0      0.00%     76.01% # Class of executed instruction
system.cpu3.op_class::FloatMult                     0      0.00%     76.01% # Class of executed instruction
system.cpu3.op_class::FloatDiv                      0      0.00%     76.01% # Class of executed instruction
system.cpu3.op_class::FloatSqrt                     0      0.00%     76.01% # Class of executed instruction
system.cpu3.op_class::SimdAdd                       0      0.00%     76.01% # Class of executed instruction
system.cpu3.op_class::SimdAddAcc                    0      0.00%     76.01% # Class of executed instruction
system.cpu3.op_class::SimdAlu                       0      0.00%     76.01% # Class of executed instruction
system.cpu3.op_class::SimdCmp                       0      0.00%     76.01% # Class of executed instruction
system.cpu3.op_class::SimdCvt                       0      0.00%     76.01% # Class of executed instruction
system.cpu3.op_class::SimdMisc                      0      0.00%     76.01% # Class of executed instruction
system.cpu3.op_class::SimdMult                      0      0.00%     76.01% # Class of executed instruction
system.cpu3.op_class::SimdMultAcc                   0      0.00%     76.01% # Class of executed instruction
system.cpu3.op_class::SimdShift                     0      0.00%     76.01% # Class of executed instruction
system.cpu3.op_class::SimdShiftAcc                  0      0.00%     76.01% # Class of executed instruction
system.cpu3.op_class::SimdSqrt                      0      0.00%     76.01% # Class of executed instruction
system.cpu3.op_class::SimdFloatAdd                  0      0.00%     76.01% # Class of executed instruction
system.cpu3.op_class::SimdFloatAlu                  0      0.00%     76.01% # Class of executed instruction
system.cpu3.op_class::SimdFloatCmp                  0      0.00%     76.01% # Class of executed instruction
system.cpu3.op_class::SimdFloatCvt                  0      0.00%     76.01% # Class of executed instruction
system.cpu3.op_class::SimdFloatDiv                  0      0.00%     76.01% # Class of executed instruction
system.cpu3.op_class::SimdFloatMisc                 0      0.00%     76.01% # Class of executed instruction
system.cpu3.op_class::SimdFloatMult                 0      0.00%     76.01% # Class of executed instruction
system.cpu3.op_class::SimdFloatMultAcc              0      0.00%     76.01% # Class of executed instruction
system.cpu3.op_class::SimdFloatSqrt                 0      0.00%     76.01% # Class of executed instruction
system.cpu3.op_class::MemRead                  253704     14.94%     90.95% # Class of executed instruction
system.cpu3.op_class::MemWrite                 153772      9.05%    100.00% # Class of executed instruction
system.cpu3.op_class::IprAccess                     0      0.00%    100.00% # Class of executed instruction
system.cpu3.op_class::InstPrefetch                  0      0.00%    100.00% # Class of executed instruction
system.cpu3.op_class::total                   1698710                       # Class of executed instruction
system.iobus.trans_dist::ReadReq                  713                       # Transaction distribution
system.iobus.trans_dist::ReadResp                 713                       # Transaction distribution
system.iobus.trans_dist::WriteReq                1470                       # Transaction distribution
system.iobus.trans_dist::WriteResp               1470                       # Transaction distribution
system.iobus.trans_dist::MessageReq                13                       # Transaction distribution
system.iobus.trans_dist::MessageResp               13                       # Transaction distribution
system.iobus.pkt_count_system.pc.south_bridge.io_apic.int_master::system.ruby.l1_cntrl0.sequencer.pio-slave-port            2                       # Packet count per connected master and slave (bytes)
system.iobus.pkt_count_system.pc.south_bridge.io_apic.int_master::system.ruby.l1_cntrl1.sequencer.pio-slave-port            4                       # Packet count per connected master and slave (bytes)
system.iobus.pkt_count_system.pc.south_bridge.io_apic.int_master::system.ruby.l1_cntrl2.sequencer.pio-slave-port            2                       # Packet count per connected master and slave (bytes)
system.iobus.pkt_count_system.pc.south_bridge.io_apic.int_master::system.ruby.l1_cntrl3.sequencer.pio-slave-port            2                       # Packet count per connected master and slave (bytes)
system.iobus.pkt_count_system.pc.south_bridge.io_apic.int_master::total           10                       # Packet count per connected master and slave (bytes)
system.iobus.pkt_count_system.ruby.l1_cntrl0.sequencer.mem-master-port::system.pc.south_bridge.io_apic.pio            6                       # Packet count per connected master and slave (bytes)
system.iobus.pkt_count_system.ruby.l1_cntrl0.sequencer.mem-master-port::system.pc.com_1.pio         1734                       # Packet count per connected master and slave (bytes)
system.iobus.pkt_count_system.ruby.l1_cntrl0.sequencer.mem-master-port::system.ruby.l1_cntrl0.sequencer.pio-slave-port          620                       # Packet count per connected master and slave (bytes)
system.iobus.pkt_count_system.ruby.l1_cntrl0.sequencer.mem-master-port::system.ruby.l1_cntrl1.sequencer.pio-slave-port            2                       # Packet count per connected master and slave (bytes)
system.iobus.pkt_count_system.ruby.l1_cntrl0.sequencer.mem-master-port::system.ruby.l1_cntrl2.sequencer.pio-slave-port            2                       # Packet count per connected master and slave (bytes)
system.iobus.pkt_count_system.ruby.l1_cntrl0.sequencer.mem-master-port::system.ruby.l1_cntrl3.sequencer.pio-slave-port            2                       # Packet count per connected master and slave (bytes)
system.iobus.pkt_count_system.ruby.l1_cntrl0.sequencer.mem-master-port::total         2366                       # Packet count per connected master and slave (bytes)
system.iobus.pkt_count_system.ruby.l1_cntrl1.sequencer.mem-master-port::system.pc.south_bridge.io_apic.pio           14                       # Packet count per connected master and slave (bytes)
system.iobus.pkt_count_system.ruby.l1_cntrl1.sequencer.mem-master-port::system.pc.com_1.pio          130                       # Packet count per connected master and slave (bytes)
system.iobus.pkt_count_system.ruby.l1_cntrl1.sequencer.mem-master-port::system.ruby.l1_cntrl1.sequencer.pio-slave-port          614                       # Packet count per connected master and slave (bytes)
system.iobus.pkt_count_system.ruby.l1_cntrl1.sequencer.mem-master-port::system.ruby.l1_cntrl2.sequencer.pio-slave-port            2                       # Packet count per connected master and slave (bytes)
system.iobus.pkt_count_system.ruby.l1_cntrl1.sequencer.mem-master-port::total          760                       # Packet count per connected master and slave (bytes)
system.iobus.pkt_count_system.ruby.l1_cntrl2.sequencer.mem-master-port::system.pc.south_bridge.io_apic.pio            8                       # Packet count per connected master and slave (bytes)
system.iobus.pkt_count_system.ruby.l1_cntrl2.sequencer.mem-master-port::system.ruby.l1_cntrl1.sequencer.pio-slave-port            4                       # Packet count per connected master and slave (bytes)
system.iobus.pkt_count_system.ruby.l1_cntrl2.sequencer.mem-master-port::system.ruby.l1_cntrl2.sequencer.pio-slave-port          622                       # Packet count per connected master and slave (bytes)
system.iobus.pkt_count_system.ruby.l1_cntrl2.sequencer.mem-master-port::system.ruby.l1_cntrl3.sequencer.pio-slave-port            2                       # Packet count per connected master and slave (bytes)
system.iobus.pkt_count_system.ruby.l1_cntrl2.sequencer.mem-master-port::total          636                       # Packet count per connected master and slave (bytes)
system.iobus.pkt_count_system.ruby.l1_cntrl3.sequencer.mem-master-port::system.pc.south_bridge.io_apic.pio            8                       # Packet count per connected master and slave (bytes)
system.iobus.pkt_count_system.ruby.l1_cntrl3.sequencer.mem-master-port::system.ruby.l1_cntrl0.sequencer.pio-slave-port            2                       # Packet count per connected master and slave (bytes)
system.iobus.pkt_count_system.ruby.l1_cntrl3.sequencer.mem-master-port::system.ruby.l1_cntrl3.sequencer.pio-slave-port          610                       # Packet count per connected master and slave (bytes)
system.iobus.pkt_count_system.ruby.l1_cntrl3.sequencer.mem-master-port::total          620                       # Packet count per connected master and slave (bytes)
system.iobus.pkt_count::total                    4392                       # Packet count per connected master and slave (bytes)
system.iobus.pkt_size_system.pc.south_bridge.io_apic.int_master::system.ruby.l1_cntrl0.sequencer.pio-slave-port            4                       # Cumulative packet size per connected master and slave (bytes)
system.iobus.pkt_size_system.pc.south_bridge.io_apic.int_master::system.ruby.l1_cntrl1.sequencer.pio-slave-port            8                       # Cumulative packet size per connected master and slave (bytes)
system.iobus.pkt_size_system.pc.south_bridge.io_apic.int_master::system.ruby.l1_cntrl2.sequencer.pio-slave-port            4                       # Cumulative packet size per connected master and slave (bytes)
system.iobus.pkt_size_system.pc.south_bridge.io_apic.int_master::system.ruby.l1_cntrl3.sequencer.pio-slave-port            4                       # Cumulative packet size per connected master and slave (bytes)
system.iobus.pkt_size_system.pc.south_bridge.io_apic.int_master::total           20                       # Cumulative packet size per connected master and slave (bytes)
system.iobus.pkt_size_system.ruby.l1_cntrl0.sequencer.mem-master-port::system.pc.south_bridge.io_apic.pio           12                       # Cumulative packet size per connected master and slave (bytes)
system.iobus.pkt_size_system.ruby.l1_cntrl0.sequencer.mem-master-port::system.pc.com_1.pio          867                       # Cumulative packet size per connected master and slave (bytes)
system.iobus.pkt_size_system.ruby.l1_cntrl0.sequencer.mem-master-port::system.ruby.l1_cntrl0.sequencer.pio-slave-port         1240                       # Cumulative packet size per connected master and slave (bytes)
system.iobus.pkt_size_system.ruby.l1_cntrl0.sequencer.mem-master-port::system.ruby.l1_cntrl1.sequencer.pio-slave-port            4                       # Cumulative packet size per connected master and slave (bytes)
system.iobus.pkt_size_system.ruby.l1_cntrl0.sequencer.mem-master-port::system.ruby.l1_cntrl2.sequencer.pio-slave-port            4                       # Cumulative packet size per connected master and slave (bytes)
system.iobus.pkt_size_system.ruby.l1_cntrl0.sequencer.mem-master-port::system.ruby.l1_cntrl3.sequencer.pio-slave-port            4                       # Cumulative packet size per connected master and slave (bytes)
system.iobus.pkt_size_system.ruby.l1_cntrl0.sequencer.mem-master-port::total         2131                       # Cumulative packet size per connected master and slave (bytes)
system.iobus.pkt_size_system.ruby.l1_cntrl1.sequencer.mem-master-port::system.pc.south_bridge.io_apic.pio           28                       # Cumulative packet size per connected master and slave (bytes)
system.iobus.pkt_size_system.ruby.l1_cntrl1.sequencer.mem-master-port::system.pc.com_1.pio           65                       # Cumulative packet size per connected master and slave (bytes)
system.iobus.pkt_size_system.ruby.l1_cntrl1.sequencer.mem-master-port::system.ruby.l1_cntrl1.sequencer.pio-slave-port         1228                       # Cumulative packet size per connected master and slave (bytes)
system.iobus.pkt_size_system.ruby.l1_cntrl1.sequencer.mem-master-port::system.ruby.l1_cntrl2.sequencer.pio-slave-port            4                       # Cumulative packet size per connected master and slave (bytes)
system.iobus.pkt_size_system.ruby.l1_cntrl1.sequencer.mem-master-port::total         1325                       # Cumulative packet size per connected master and slave (bytes)
system.iobus.pkt_size_system.ruby.l1_cntrl2.sequencer.mem-master-port::system.pc.south_bridge.io_apic.pio           16                       # Cumulative packet size per connected master and slave (bytes)
system.iobus.pkt_size_system.ruby.l1_cntrl2.sequencer.mem-master-port::system.ruby.l1_cntrl1.sequencer.pio-slave-port            8                       # Cumulative packet size per connected master and slave (bytes)
system.iobus.pkt_size_system.ruby.l1_cntrl2.sequencer.mem-master-port::system.ruby.l1_cntrl2.sequencer.pio-slave-port         1244                       # Cumulative packet size per connected master and slave (bytes)
system.iobus.pkt_size_system.ruby.l1_cntrl2.sequencer.mem-master-port::system.ruby.l1_cntrl3.sequencer.pio-slave-port            4                       # Cumulative packet size per connected master and slave (bytes)
system.iobus.pkt_size_system.ruby.l1_cntrl2.sequencer.mem-master-port::total         1272                       # Cumulative packet size per connected master and slave (bytes)
system.iobus.pkt_size_system.ruby.l1_cntrl3.sequencer.mem-master-port::system.pc.south_bridge.io_apic.pio           16                       # Cumulative packet size per connected master and slave (bytes)
system.iobus.pkt_size_system.ruby.l1_cntrl3.sequencer.mem-master-port::system.ruby.l1_cntrl0.sequencer.pio-slave-port            4                       # Cumulative packet size per connected master and slave (bytes)
system.iobus.pkt_size_system.ruby.l1_cntrl3.sequencer.mem-master-port::system.ruby.l1_cntrl3.sequencer.pio-slave-port         1220                       # Cumulative packet size per connected master and slave (bytes)
system.iobus.pkt_size_system.ruby.l1_cntrl3.sequencer.mem-master-port::total         1240                       # Cumulative packet size per connected master and slave (bytes)
system.iobus.pkt_size::total                     5988                       # Cumulative packet size per connected master and slave (bytes)
system.iobus.reqLayer8.occupancy                31496                       # Layer occupancy (ticks)
system.iobus.reqLayer8.utilization                0.0                       # Layer utilization (%)
system.iobus.reqLayer12.occupancy             1209000                       # Layer occupancy (ticks)
system.iobus.reqLayer12.utilization               0.0                       # Layer utilization (%)
system.iobus.reqLayer17.occupancy              767998                       # Layer occupancy (ticks)
system.iobus.reqLayer17.utilization               0.0                       # Layer utilization (%)
system.iobus.reqLayer18.occupancy              775000                       # Layer occupancy (ticks)
system.iobus.reqLayer18.utilization               0.0                       # Layer utilization (%)
system.iobus.reqLayer19.occupancy              817289                       # Layer occupancy (ticks)
system.iobus.reqLayer19.utilization               0.0                       # Layer utilization (%)
system.iobus.reqLayer20.occupancy              765500                       # Layer occupancy (ticks)
system.iobus.reqLayer20.utilization               0.0                       # Layer utilization (%)
system.iobus.respLayer0.occupancy                6500                       # Layer occupancy (ticks)
system.iobus.respLayer0.utilization               0.0                       # Layer utilization (%)
system.iobus.respLayer2.occupancy             1992000                       # Layer occupancy (ticks)
system.iobus.respLayer2.utilization               0.0                       # Layer utilization (%)
system.iobus.respLayer4.occupancy              584500                       # Layer occupancy (ticks)
system.iobus.respLayer4.utilization               0.0                       # Layer utilization (%)
system.iobus.respLayer6.occupancy              479000                       # Layer occupancy (ticks)
system.iobus.respLayer6.utilization               0.0                       # Layer utilization (%)
system.iobus.respLayer8.occupancy              465500                       # Layer occupancy (ticks)
system.iobus.respLayer8.utilization               0.0                       # Layer utilization (%)
system.pc.south_bridge.ide.disks.dma_read_full_pages            0                       # Number of full page size DMA reads (not PRD).
system.pc.south_bridge.ide.disks.dma_read_bytes            0                       # Number of bytes transfered via DMA reads (not PRD).
system.pc.south_bridge.ide.disks.dma_read_txs            0                       # Number of DMA read transactions (not PRD).
system.pc.south_bridge.ide.disks.dma_write_full_pages            0                       # Number of full page size DMA writes.
system.pc.south_bridge.ide.disks.dma_write_bytes            0                       # Number of bytes transfered via DMA writes.
system.pc.south_bridge.ide.disks.dma_write_txs            0                       # Number of DMA write transactions.
system.ruby.clk_domain.clock                      500                       # Clock period in ticks
system.ruby.outstanding_req_hist_seqr::bucket_size            1                      
system.ruby.outstanding_req_hist_seqr::max_bucket            9                      
system.ruby.outstanding_req_hist_seqr::samples    936332824                      
system.ruby.outstanding_req_hist_seqr::mean     1.000000                      
system.ruby.outstanding_req_hist_seqr::gmean     1.000000                      
system.ruby.outstanding_req_hist_seqr::stdev     0.000498                      
system.ruby.outstanding_req_hist_seqr    |           0      0.00%      0.00% |   936332592    100.00%    100.00% |         232      0.00%    100.00% |           0      0.00%    100.00% |           0      0.00%    100.00% |           0      0.00%    100.00% |           0      0.00%    100.00% |           0      0.00%    100.00% |           0      0.00%    100.00% |           0      0.00%    100.00%
system.ruby.outstanding_req_hist_seqr::total    936332824                      
system.ruby.latency_hist_seqr::bucket_size          256                      
system.ruby.latency_hist_seqr::max_bucket         2559                      
system.ruby.latency_hist_seqr::samples      936332824                      
system.ruby.latency_hist_seqr::mean          1.566885                      
system.ruby.latency_hist_seqr::gmean         1.030227                      
system.ruby.latency_hist_seqr::stdev         9.655460                      
system.ruby.latency_hist_seqr            |   936223561     99.99%     99.99% |       56527      0.01%     99.99% |       47835      0.01%    100.00% |        3793      0.00%    100.00% |         803      0.00%    100.00% |         251      0.00%    100.00% |          48      0.00%    100.00% |           6      0.00%    100.00% |           0      0.00%    100.00% |           0      0.00%    100.00%
system.ruby.latency_hist_seqr::total        936332824                      
system.ruby.hit_latency_hist_seqr::bucket_size            1                      
system.ruby.hit_latency_hist_seqr::max_bucket            9                      
system.ruby.hit_latency_hist_seqr::samples    928879217                      
system.ruby.hit_latency_hist_seqr::mean             1                      
system.ruby.hit_latency_hist_seqr::gmean            1                      
[...]
system.ruby.L1Cache_Controller.O.Load::total         7795                      
system.ruby.L1Cache_Controller.O.Store   |          46     14.65%     14.65% |         180     57.32%     71.97% |          57     18.15%     90.13% |          31      9.87%    100.00%
system.ruby.L1Cache_Controller.O.Store::total          314                      
system.ruby.L1Cache_Controller.O.L1_Replacement |         107     15.09%     15.09% |         258     36.39%     51.48% |         242     34.13%     85.61% |         102     14.39%    100.00%
system.ruby.L1Cache_Controller.O.L1_Replacement::total          709                      
system.ruby.L1Cache_Controller.O.Fwd_GETX |        1877     29.05%     29.05% |        1660     25.69%     54.74% |         177      2.74%     57.48% |        2747     42.52%    100.00%
system.ruby.L1Cache_Controller.O.Fwd_GETX::total         6461                      
system.ruby.L1Cache_Controller.O.Fwd_GETS |        2449     37.99%     37.99% |         633      9.82%     47.81% |         160      2.48%     50.29% |        3204     49.71%    100.00%
system.ruby.L1Cache_Controller.O.Fwd_GETS::total         6446                      
system.ruby.L1Cache_Controller.M.Load    |      166677      8.36%      8.36% |       32172      1.61%      9.97% |     1766769     88.62%     98.59% |       28024      1.41%    100.00%
system.ruby.L1Cache_Controller.M.Load::total      1993642                      
system.ruby.L1Cache_Controller.M.Store   |       43268     66.90%     66.90% |        1453      2.25%     69.15% |       18910     29.24%     98.38% |        1045      1.62%    100.00%
system.ruby.L1Cache_Controller.M.Store::total        64676                      
system.ruby.L1Cache_Controller.M.L1_Replacement |       13332      1.35%      1.35% |        2247      0.23%      1.57% |      973941     98.32%     99.89% |        1108      0.11%    100.00%
system.ruby.L1Cache_Controller.M.L1_Replacement::total       990628                      
system.ruby.L1Cache_Controller.M.Fwd_GETX |         281     26.43%     26.43% |         531     49.95%     76.39% |         110     10.35%     86.74% |         141     13.26%    100.00%
system.ruby.L1Cache_Controller.M.Fwd_GETX::total         1063                      
system.ruby.L1Cache_Controller.M.Fwd_GETS |        2037     27.76%     27.76% |        2114     28.81%     56.56% |         289      3.94%     60.50% |        2899     39.50%    100.00%
system.ruby.L1Cache_Controller.M.Fwd_GETS::total         7339                      
system.ruby.L1Cache_Controller.M_W.Load  |       60386     12.23%     12.23% |        4610      0.93%     13.16% |      425395     86.16%     99.32% |        3356      0.68%    100.00%
system.ruby.L1Cache_Controller.M_W.Load::total       493747                      
system.ruby.L1Cache_Controller.M_W.Store |        4693     30.99%     30.99% |        1303      8.60%     39.59% |        8758     57.83%     97.42% |         391      2.58%    100.00%
system.ruby.L1Cache_Controller.M_W.Store::total        15145                      
system.ruby.L1Cache_Controller.M_W.Fwd_GETX |          42     37.17%     37.17% |           0      0.00%     37.17% |          59     52.21%     89.38% |          12     10.62%    100.00%
system.ruby.L1Cache_Controller.M_W.Fwd_GETX::total          113                      
system.ruby.L1Cache_Controller.M_W.Fwd_GETS |         108     19.82%     19.82% |         214     39.27%     59.08% |         155     28.44%     87.52% |          68     12.48%    100.00%
system.ruby.L1Cache_Controller.M_W.Fwd_GETS::total          545                      
system.ruby.L1Cache_Controller.M_W.Use_Timeout |       58836      5.53%      5.53% |        6367      0.60%      6.13% |      993270     93.38%     99.51% |        5189      0.49%    100.00%
system.ruby.L1Cache_Controller.M_W.Use_Timeout::total      1063662                      
system.ruby.L1Cache_Controller.MM.Load   |     2059510      3.20%      3.20% |      517321      0.80%      4.00% |    61498917     95.56%     99.57% |      277678      0.43%    100.00%
system.ruby.L1Cache_Controller.MM.Load::total     64353426                      
system.ruby.L1Cache_Controller.MM.Store  |     1997087      3.86%      3.86% |      527143      1.02%      4.88% |    48945481     94.57%     99.45% |      285322      0.55%    100.00%
system.ruby.L1Cache_Controller.MM.Store::total     51755033                      
system.ruby.L1Cache_Controller.MM.L1_Replacement |       86437      2.10%      2.10% |       13504      0.33%      2.42% |     4014982     97.41%     99.83% |        6954      0.17%    100.00%
system.ruby.L1Cache_Controller.MM.L1_Replacement::total      4121877                      
system.ruby.L1Cache_Controller.MM.Fwd_GETX |         570     17.92%     17.92% |         739     23.24%     41.16% |        1284     40.38%     81.54% |         587     18.46%    100.00%
system.ruby.L1Cache_Controller.MM.Fwd_GETX::total         3180                      
system.ruby.L1Cache_Controller.MM.Fwd_GETS |        3504     34.58%     34.58% |        2367     23.36%     57.95% |        2246     22.17%     80.11% |        2015     19.89%    100.00%
system.ruby.L1Cache_Controller.MM.Fwd_GETS::total        10132                      
system.ruby.L1Cache_Controller.MM.Fwd_DMA |           2    100.00%    100.00% |           0      0.00%    100.00% |           0      0.00%    100.00% |           0      0.00%    100.00%
system.ruby.L1Cache_Controller.MM.Fwd_DMA::total            2                      
system.ruby.L1Cache_Controller.MM_W.Load |        6757      1.40%      1.40% |        1487      0.31%      1.71% |      473628     98.10%     99.80% |         944      0.20%    100.00%
system.ruby.L1Cache_Controller.MM_W.Load::total       482816                      
system.ruby.L1Cache_Controller.MM_W.Store |      116432      2.00%      2.00% |       71224      1.22%      3.22% |     5603835     96.19%     99.41% |       34481      0.59%    100.00%
system.ruby.L1Cache_Controller.MM_W.Store::total      5825972                      
system.ruby.L1Cache_Controller.MM_W.Fwd_GETX |           6     16.67%     16.67% |          13     36.11%     52.78% |          13     36.11%     88.89% |           4     11.11%    100.00%
system.ruby.L1Cache_Controller.MM_W.Fwd_GETX::total           36                      
system.ruby.L1Cache_Controller.MM_W.Fwd_GETS |         435     27.60%     27.60% |         599     38.01%     65.61% |         176     11.17%     76.78% |         366     23.22%    100.00%
system.ruby.L1Cache_Controller.MM_W.Fwd_GETS::total         1576                      
system.ruby.L1Cache_Controller.MM_W.Use_Timeout |       47244      1.16%      1.16% |       15294      0.38%      1.54% |     3999596     98.26%     99.79% |        8455      0.21%    100.00%
system.ruby.L1Cache_Controller.MM_W.Use_Timeout::total      4070589                      
system.ruby.L1Cache_Controller.IM.Ack    |        4038     44.02%     44.02% |        1770     19.30%     63.32% |        1966     21.43%     84.75% |        1399     15.25%    100.00%
system.ruby.L1Cache_Controller.IM.Ack::total         9173                      
system.ruby.L1Cache_Controller.IM.Exclusive_Data |       34237      0.98%      0.98% |       11980      0.34%      1.32% |     3449462     98.50%     99.82% |        6163      0.18%    100.00%
system.ruby.L1Cache_Controller.IM.Exclusive_Data::total      3501842                      
system.ruby.L1Cache_Controller.SM.Inv    |           0      0.00%      0.00% |           0      0.00%      0.00% |           1    100.00%    100.00% |           0      0.00%    100.00%
system.ruby.L1Cache_Controller.SM.Inv::total            1                      
system.ruby.L1Cache_Controller.SM.Ack    |        3663     46.23%     46.23% |        1180     14.89%     61.13% |        1792     22.62%     83.74% |        1288     16.26%    100.00%
system.ruby.L1Cache_Controller.SM.Ack::total         7923                      
system.ruby.L1Cache_Controller.SM.Exclusive_Data |        8268      1.49%      1.49% |        1832      0.33%      1.83% |      541319     97.84%     99.66% |        1870      0.34%    100.00%
system.ruby.L1Cache_Controller.SM.Exclusive_Data::total       553289                      
system.ruby.L1Cache_Controller.OM.Own_GETX |          46     14.70%     14.70% |         179     57.19%     71.88% |          57     18.21%     90.10% |          31      9.90%    100.00%
system.ruby.L1Cache_Controller.OM.Own_GETX::total          313                      
system.ruby.L1Cache_Controller.OM.Fwd_GETX |           0      0.00%      0.00% |           1    100.00%    100.00% |           0      0.00%    100.00% |           0      0.00%    100.00%
system.ruby.L1Cache_Controller.OM.Fwd_GETX::total            1                      
system.ruby.L1Cache_Controller.OM.Ack    |         506     21.77%     21.77% |         621     26.72%     48.49% |        1091     46.94%     95.44% |         106      4.56%    100.00%
system.ruby.L1Cache_Controller.OM.Ack::total         2324                      
system.ruby.L1Cache_Controller.OM.All_acks |       42551      1.05%      1.05% |       13991      0.34%      1.39% |     3990838     98.41%     99.80% |        8064      0.20%    100.00%
system.ruby.L1Cache_Controller.OM.All_acks::total      4055444                      
system.ruby.L1Cache_Controller.IS.Data   |       77857      3.08%      3.08% |       37778      1.49%      4.57% |     2387384     94.36%     98.93% |       27050      1.07%    100.00%
system.ruby.L1Cache_Controller.IS.Data::total      2530069                      
system.ruby.L1Cache_Controller.IS.Exclusive_Data |       63529      5.89%      5.89% |        7670      0.71%      6.60% |     1002028     92.88%     99.48% |        5580      0.52%    100.00%
system.ruby.L1Cache_Controller.IS.Exclusive_Data::total      1078807                      
system.ruby.L1Cache_Controller.SI.Load   |           4     40.00%     40.00% |           4     40.00%     80.00% |           1     10.00%     90.00% |           1     10.00%    100.00%
system.ruby.L1Cache_Controller.SI.Load::total           10                      
system.ruby.L1Cache_Controller.SI.Ifetch |           8    100.00%    100.00% |           0      0.00%    100.00% |           0      0.00%    100.00% |           0      0.00%    100.00%
system.ruby.L1Cache_Controller.SI.Ifetch::total            8                      
system.ruby.L1Cache_Controller.SI.Writeback_Ack |       52687      6.02%      6.02% |       27059      3.09%      9.11% |      776764     88.71%     97.82% |       19117      2.18%    100.00%
system.ruby.L1Cache_Controller.SI.Writeback_Ack::total       875627                      
system.ruby.L1Cache_Controller.SI.Writeback_Ack_Data |       15740      1.44%      1.44% |        4873      0.45%      1.89% |     1067817     97.74%     99.63% |        4041      0.37%    100.00%
system.ruby.L1Cache_Controller.SI.Writeback_Ack_Data::total      1092471                      
system.ruby.L1Cache_Controller.OI.Writeback_Ack_Data |         107     15.09%     15.09% |         258     36.39%     51.48% |         242     34.13%     85.61% |         102     14.39%    100.00%
system.ruby.L1Cache_Controller.OI.Writeback_Ack_Data::total          709                      
system.ruby.L1Cache_Controller.MI.Load   |           3    100.00%    100.00% |           0      0.00%    100.00% |           0      0.00%    100.00% |           0      0.00%    100.00%
system.ruby.L1Cache_Controller.MI.Load::total            3                      
system.ruby.L1Cache_Controller.MI.Store  |           0      0.00%      0.00% |           0      0.00%      0.00% |          13    100.00%    100.00% |           0      0.00%    100.00%
system.ruby.L1Cache_Controller.MI.Store::total           13                      
system.ruby.L1Cache_Controller.MI.Writeback_Ack_Data |       99769      1.95%      1.95% |       15751      0.31%      2.26% |     4988923     97.58%     99.84% |        8062      0.16%    100.00%
system.ruby.L1Cache_Controller.MI.Writeback_Ack_Data::total      5112505                      
system.ruby.L2Cache_Controller.L1_GETS        3609504      0.00%      0.00%
system.ruby.L2Cache_Controller.L1_GETX        4055462      0.00%      0.00%
system.ruby.L2Cache_Controller.L1_PUTO            709      0.00%      0.00%
system.ruby.L2Cache_Controller.L1_PUTX        5112505      0.00%      0.00%
system.ruby.L2Cache_Controller.L1_PUTS_only      1872911      0.00%      0.00%
system.ruby.L2Cache_Controller.L1_PUTS          95196      0.00%      0.00%
system.ruby.L2Cache_Controller.Fwd_DMA              2      0.00%      0.00%
system.ruby.L2Cache_Controller.Inv                128      0.00%      0.00%
system.ruby.L2Cache_Controller.All_Acks       1594092      0.00%      0.00%
system.ruby.L2Cache_Controller.Data           3226793      0.00%      0.00%
system.ruby.L2Cache_Controller.L1_WBCLEANDATA      1092471      0.00%      0.00%
system.ruby.L2Cache_Controller.L1_WBDIRTYDATA      5113214      0.00%      0.00%
system.ruby.L2Cache_Controller.Writeback_Ack      1589319      0.00%      0.00%
system.ruby.L2Cache_Controller.Unblock        3405696      0.00%      0.00%
system.ruby.L2Cache_Controller.Exclusive_Unblock      5134251      0.00%      0.00%
system.ruby.L2Cache_Controller.DmaAck               2      0.00%      0.00%
system.ruby.L2Cache_Controller.L2_Replacement      2672874      0.00%      0.00%
system.ruby.L2Cache_Controller.NP.L1_GETS      1632701      0.00%      0.00%
system.ruby.L2Cache_Controller.NP.L1_GETX      1042429      0.00%      0.00%
system.ruby.L2Cache_Controller.NP.Inv             124      0.00%      0.00%
system.ruby.L2Cache_Controller.ILS.L1_GETS         4735      0.00%      0.00%
system.ruby.L2Cache_Controller.ILS.L1_GETX       547076      0.00%      0.00%
system.ruby.L2Cache_Controller.ILS.L1_PUTS_only      1086806      0.00%      0.00%
system.ruby.L2Cache_Controller.ILS.L1_PUTS         5665      0.00%      0.00%
system.ruby.L2Cache_Controller.ILX.L1_GETS        17471      0.00%      0.00%
system.ruby.L2Cache_Controller.ILX.L1_GETX         4243      0.00%      0.00%
system.ruby.L2Cache_Controller.ILX.L1_PUTX      5112505      0.00%      0.00%
system.ruby.L2Cache_Controller.ILX.Fwd_DMA            2      0.00%      0.00%
system.ruby.L2Cache_Controller.ILOX.L1_GETS          494      0.00%      0.00%
system.ruby.L2Cache_Controller.ILOX.L1_GETX           93      0.00%      0.00%
system.ruby.L2Cache_Controller.ILOX.L1_PUTO          334      0.00%      0.00%
system.ruby.L2Cache_Controller.ILOSX.L1_GETS         5952      0.00%      0.00%
system.ruby.L2Cache_Controller.ILOSX.L1_GETX         6682      0.00%      0.00%
system.ruby.L2Cache_Controller.ILOSX.L1_PUTO          375      0.00%      0.00%
system.ruby.L2Cache_Controller.ILOSX.L1_PUTS_only          917      0.00%      0.00%
system.ruby.L2Cache_Controller.ILOSX.L1_PUTS         1460      0.00%      0.00%
system.ruby.L2Cache_Controller.S.L1_GETS       789104      0.00%      0.00%
system.ruby.L2Cache_Controller.S.L1_GETX         1926      0.00%      0.00%
system.ruby.L2Cache_Controller.S.Inv                4      0.00%      0.00%
system.ruby.L2Cache_Controller.S.L2_Replacement      1076750      0.00%      0.00%
system.ruby.L2Cache_Controller.OLSX.L1_GETS          179      0.00%      0.00%
system.ruby.L2Cache_Controller.OLSX.L1_GETX          181      0.00%      0.00%
system.ruby.L2Cache_Controller.OLSX.L1_PUTS_only          121      0.00%      0.00%
system.ruby.L2Cache_Controller.OLSX.L1_PUTS          116      0.00%      0.00%
system.ruby.L2Cache_Controller.OLSX.L2_Replacement           69      0.00%      0.00%
system.ruby.L2Cache_Controller.SLS.L1_GETS        89565      0.00%      0.00%
system.ruby.L2Cache_Controller.SLS.L1_GETX         2661      0.00%      0.00%
system.ruby.L2Cache_Controller.SLS.L1_PUTS_only       785066      0.00%      0.00%
system.ruby.L2Cache_Controller.SLS.L1_PUTS        87947      0.00%      0.00%
system.ruby.L2Cache_Controller.SLS.L2_Replacement         6805      0.00%      0.00%
system.ruby.L2Cache_Controller.M.L1_GETS      1068675      0.00%      0.00%
system.ruby.L2Cache_Controller.M.L1_GETX      2450153      0.00%      0.00%
system.ruby.L2Cache_Controller.M.L2_Replacement      1589250      0.00%      0.00%
system.ruby.L2Cache_Controller.ILOXW.L1_WBDIRTYDATA          334      0.00%      0.00%
system.ruby.L2Cache_Controller.ILOXW.Unblock          917      0.00%      0.00%
system.ruby.L2Cache_Controller.ILOSXW.L1_WBDIRTYDATA          375      0.00%      0.00%
system.ruby.L2Cache_Controller.ILOSXW.Unblock         1460      0.00%      0.00%
system.ruby.L2Cache_Controller.SLSW.L1_GETS            3      0.00%      0.00%
system.ruby.L2Cache_Controller.SLSW.L1_PUTS            1      0.00%      0.00%
system.ruby.L2Cache_Controller.SLSW.Unblock        87947      0.00%      0.00%
system.ruby.L2Cache_Controller.ILSW.L1_WBCLEANDATA         5665      0.00%      0.00%
system.ruby.L2Cache_Controller.IW.L1_WBCLEANDATA      1086806      0.00%      0.00%
system.ruby.L2Cache_Controller.SW.Unblock       785066      0.00%      0.00%
system.ruby.L2Cache_Controller.OXW.Unblock          121      0.00%      0.00%
system.ruby.L2Cache_Controller.OLSXW.Unblock          116      0.00%      0.00%
system.ruby.L2Cache_Controller.ILXW.L1_WBDIRTYDATA      5112505      0.00%      0.00%
system.ruby.L2Cache_Controller.IFLS.Unblock         4735      0.00%      0.00%
system.ruby.L2Cache_Controller.IFLOX.Unblock          494      0.00%      0.00%
system.ruby.L2Cache_Controller.IFLOX.Exclusive_Unblock          181      0.00%      0.00%
system.ruby.L2Cache_Controller.IFLOXX.L1_GETS          231      0.00%      0.00%
system.ruby.L2Cache_Controller.IFLOXX.L1_GETX           13      0.00%      0.00%
system.ruby.L2Cache_Controller.IFLOXX.Unblock         7339      0.00%      0.00%
system.ruby.L2Cache_Controller.IFLOXX.Exclusive_Unblock        14468      0.00%      0.00%
system.ruby.L2Cache_Controller.IFLOSX.Unblock         5952      0.00%      0.00%
system.ruby.L2Cache_Controller.IFLXO.L1_GETS          153      0.00%      0.00%
system.ruby.L2Cache_Controller.IFLXO.L1_GETX            5      0.00%      0.00%
system.ruby.L2Cache_Controller.IFLXO.Exclusive_Unblock         6682      0.00%      0.00%
system.ruby.L2Cache_Controller.IGS.L1_GETS          231      0.00%      0.00%
system.ruby.L2Cache_Controller.IGS.Data       1632701      0.00%      0.00%
system.ruby.L2Cache_Controller.IGS.Unblock      1632701      0.00%      0.00%
system.ruby.L2Cache_Controller.IGM.Data       1044355      0.00%      0.00%
system.ruby.L2Cache_Controller.IGMLS.Data       549737      0.00%      0.00%
system.ruby.L2Cache_Controller.IGMO.All_Acks      1594092      0.00%      0.00%
system.ruby.L2Cache_Controller.IGMO.Exclusive_Unblock      1594092      0.00%      0.00%
system.ruby.L2Cache_Controller.MM.Exclusive_Unblock      2450153      0.00%      0.00%
system.ruby.L2Cache_Controller.SS.L1_GETS            2      0.00%      0.00%
system.ruby.L2Cache_Controller.SS.Unblock       789104      0.00%      0.00%
system.ruby.L2Cache_Controller.OO.Exclusive_Unblock      1068675      0.00%      0.00%
system.ruby.L2Cache_Controller.OLSXS.Unblock          179      0.00%      0.00%
system.ruby.L2Cache_Controller.SLSS.L1_GETS            8      0.00%      0.00%
system.ruby.L2Cache_Controller.SLSS.L1_PUTS_only            1      0.00%      0.00%
system.ruby.L2Cache_Controller.SLSS.L1_PUTS            7      0.00%      0.00%
system.ruby.L2Cache_Controller.SLSS.Unblock        89565      0.00%      0.00%
system.ruby.L2Cache_Controller.MI.Writeback_Ack      1589250      0.00%      0.00%
system.ruby.L2Cache_Controller.OLSI.Writeback_Ack           69      0.00%      0.00%
system.ruby.L2Cache_Controller.ILXD.DmaAck            2      0.00%      0.00%

---------- End Simulation Statistics   ----------
