
---------- Begin Simulation Statistics ----------
sim_seconds                                  3.965381                       # Number of seconds simulated
sim_ticks                                3965381097000                       # Number of ticks simulated
final_tick                               56162915591501                       # Number of ticks from beginning of simulation (restored from checkpoints and never reset)
sim_freq                                 1000000000000                       # Frequency of simulated ticks
host_inst_rate                                 162269                       # Simulator instruction rate (inst/s)
host_op_rate                                   227498                       # Simulator op (including micro ops) rate (op/s)
host_tick_rate                              285900970                       # Simulator tick rate (ticks/s)
host_mem_usage                                1923160                       # Number of bytes of host memory used
host_seconds                                 13869.77                       # Real time elapsed on the host
sim_insts                                  2250640485                       # Number of instructions simulated
sim_ops                                    3155347003                       # Number of ops (including micro ops) simulated
system.voltage_domain.voltage                       1                       # Voltage in Volts
system.clk_domain.clock                          1000                       # Clock period in ticks
system.mem_ctrls.bytes_read::ruby.dir_cntrl0    150763776                       # Number of bytes read from this memory
system.mem_ctrls.bytes_read::total          150763776                       # Number of bytes read from this memory
system.mem_ctrls.bytes_written::ruby.dir_cntrl0     60767424                       # Number of bytes written to this memory
system.mem_ctrls.bytes_written::total        60767424                       # Number of bytes written to this memory
system.mem_ctrls.num_reads::ruby.dir_cntrl0      2355684                       # Number of read requests responded to by this memory
system.mem_ctrls.num_reads::total             2355684                       # Number of read requests responded to by this memory
system.mem_ctrls.num_writes::ruby.dir_cntrl0       949491                       # Number of write requests responded to by this memory
system.mem_ctrls.num_writes::total             949491                       # Number of write requests responded to by this memory
system.mem_ctrls.bw_read::ruby.dir_cntrl0     38019997                       # Total read bandwidth from this memory (bytes/s)
system.mem_ctrls.bw_read::total              38019997                       # Total read bandwidth from this memory (bytes/s)
system.mem_ctrls.bw_write::ruby.dir_cntrl0     15324485                       # Write bandwidth from this memory (bytes/s)
system.mem_ctrls.bw_write::total             15324485                       # Write bandwidth from this memory (bytes/s)
system.mem_ctrls.bw_total::ruby.dir_cntrl0     53344482                       # Total bandwidth to/from this memory (bytes/s)
system.mem_ctrls.bw_total::total             53344482                       # Total bandwidth to/from this memory (bytes/s)
system.mem_ctrls.readReqs                     2355684                       # Number of read requests accepted
system.mem_ctrls.writeReqs                     949491                       # Number of write requests accepted
system.mem_ctrls.readBursts                   2355684                       # Number of DRAM read bursts, including those serviced by the write queue
system.mem_ctrls.writeBursts                   949491                       # Number of DRAM write bursts, including those merged in the write queue
system.mem_ctrls.bytesReadDRAM              150719488                       # Total number of bytes read from DRAM
system.mem_ctrls.bytesReadWrQ                   44288                       # Total number of bytes read from write queue
system.mem_ctrls.bytesWritten                60767168                       # Total number of bytes written to DRAM
system.mem_ctrls.bytesReadSys               150763776                       # Total read bytes from the system interface side
system.mem_ctrls.bytesWrittenSys             60767424                       # Total written bytes from the system interface side
system.mem_ctrls.servicedByWrQ                    692                       # Number of DRAM read bursts serviced by the write queue
system.mem_ctrls.mergedWrBursts                     0                       # Number of DRAM write bursts merged with an existing one
system.mem_ctrls.neitherReadNorWriteReqs            0                       # Number of requests that are neither read nor write
system.mem_ctrls.perBankRdBursts::0            145221                       # Per bank write bursts
system.mem_ctrls.perBankRdBursts::1            147557                       # Per bank write bursts
system.mem_ctrls.perBankRdBursts::2            145609                       # Per bank write bursts
system.mem_ctrls.perBankRdBursts::3            142723                       # Per bank write bursts
system.mem_ctrls.perBankRdBursts::4            148839                       # Per bank write bursts
system.mem_ctrls.perBankRdBursts::5            148068                       # Per bank write bursts
system.mem_ctrls.perBankRdBursts::6            146659                       # Per bank write bursts
system.mem_ctrls.perBankRdBursts::7            154656                       # Per bank write bursts
system.mem_ctrls.perBankRdBursts::8            153598                       # Per bank write bursts
system.mem_ctrls.perBankRdBursts::9            146077                       # Per bank write bursts
system.mem_ctrls.perBankRdBursts::10           144175                       # Per bank write bursts
system.mem_ctrls.perBankRdBursts::11           144091                       # Per bank write bursts
system.mem_ctrls.perBankRdBursts::12           148360                       # Per bank write bursts
system.mem_ctrls.perBankRdBursts::13           146933                       # Per bank write bursts
system.mem_ctrls.perBankRdBursts::14           144741                       # Per bank write bursts
system.mem_ctrls.perBankRdBursts::15           147685                       # Per bank write bursts
system.mem_ctrls.perBankWrBursts::0             58857                       # Per bank write bursts
system.mem_ctrls.perBankWrBursts::1             60133                       # Per bank write bursts
system.mem_ctrls.perBankWrBursts::2             58762                       # Per bank write bursts
system.mem_ctrls.perBankWrBursts::3             57075                       # Per bank write bursts
system.mem_ctrls.perBankWrBursts::4             60178                       # Per bank write bursts
system.mem_ctrls.perBankWrBursts::5             59153                       # Per bank write bursts
system.mem_ctrls.perBankWrBursts::6             59605                       # Per bank write bursts
system.mem_ctrls.perBankWrBursts::7             62646                       # Per bank write bursts
system.mem_ctrls.perBankWrBursts::8             60541                       # Per bank write bursts
system.mem_ctrls.perBankWrBursts::9             59135                       # Per bank write bursts
system.mem_ctrls.perBankWrBursts::10            57763                       # Per bank write bursts
system.mem_ctrls.perBankWrBursts::11            58021                       # Per bank write bursts
system.mem_ctrls.perBankWrBursts::12            60598                       # Per bank write bursts
system.mem_ctrls.perBankWrBursts::13            59368                       # Per bank write bursts
system.mem_ctrls.perBankWrBursts::14            58684                       # Per bank write bursts
system.mem_ctrls.perBankWrBursts::15            58968                       # Per bank write bursts
system.mem_ctrls.numRdRetry                         0                       # Number of times read queue was full causing retry
system.mem_ctrls.numWrRetry                         0                       # Number of times write queue was full causing retry
system.mem_ctrls.totGap                  3965381040000                       # Total gap between requests
system.mem_ctrls.readPktSize::0                     0                       # Read request sizes (log2)
system.mem_ctrls.readPktSize::1                     0                       # Read request sizes (log2)
system.mem_ctrls.readPktSize::2                     0                       # Read request sizes (log2)
system.mem_ctrls.readPktSize::3                     0                       # Read request sizes (log2)
system.mem_ctrls.readPktSize::4                     0                       # Read request sizes (log2)
system.mem_ctrls.readPktSize::5                     0                       # Read request sizes (log2)
system.mem_ctrls.readPktSize::6               2355684                       # Read request sizes (log2)
system.mem_ctrls.writePktSize::0                    0                       # Write request sizes (log2)
system.mem_ctrls.writePktSize::1                    0                       # Write request sizes (log2)
system.mem_ctrls.writePktSize::2                    0                       # Write request sizes (log2)
system.mem_ctrls.writePktSize::3                    0                       # Write request sizes (log2)
system.mem_ctrls.writePktSize::4                    0                       # Write request sizes (log2)
system.mem_ctrls.writePktSize::5                    0                       # Write request sizes (log2)
system.mem_ctrls.writePktSize::6               949491                       # Write request sizes (log2)
system.mem_ctrls.rdQLenPdf::0                 2352688                       # What read queue length does an incoming req see
system.mem_ctrls.rdQLenPdf::1                    2294                       # What read queue length does an incoming req see
system.mem_ctrls.rdQLenPdf::2                      10                       # What read queue length does an incoming req see
system.mem_ctrls.rdQLenPdf::3                       0                       # What read queue length does an incoming req see
system.mem_ctrls.rdQLenPdf::4                       0                       # What read queue length does an incoming req see
system.mem_ctrls.rdQLenPdf::5                       0                       # What read queue length does an incoming req see
system.mem_ctrls.rdQLenPdf::6                       0                       # What read queue length does an incoming req see
system.mem_ctrls.rdQLenPdf::7                       0                       # What read queue length does an incoming req see
system.mem_ctrls.rdQLenPdf::8                       0                       # What read queue length does an incoming req see
system.mem_ctrls.rdQLenPdf::9                       0                       # What read queue length does an incoming req see
system.mem_ctrls.rdQLenPdf::10                      0                       # What read queue length does an incoming req see
system.mem_ctrls.rdQLenPdf::11                      0                       # What read queue length does an incoming req see
system.mem_ctrls.rdQLenPdf::12                      0                       # What read queue length does an incoming req see
system.mem_ctrls.rdQLenPdf::13                      0                       # What read queue length does an incoming req see
system.mem_ctrls.rdQLenPdf::14                      0                       # What read queue length does an incoming req see
system.mem_ctrls.rdQLenPdf::15                      0                       # What read queue length does an incoming req see
system.mem_ctrls.rdQLenPdf::16                      0                       # What read queue length does an incoming req see
system.mem_ctrls.rdQLenPdf::17                      0                       # What read queue length does an incoming req see
system.mem_ctrls.rdQLenPdf::18                      0                       # What read queue length does an incoming req see
system.mem_ctrls.rdQLenPdf::19                      0                       # What read queue length does an incoming req see
system.mem_ctrls.rdQLenPdf::20                      0                       # What read queue length does an incoming req see
system.mem_ctrls.rdQLenPdf::21                      0                       # What read queue length does an incoming req see
system.mem_ctrls.rdQLenPdf::22                      0                       # What read queue length does an incoming req see
system.mem_ctrls.rdQLenPdf::23                      0                       # What read queue length does an incoming req see
system.mem_ctrls.rdQLenPdf::24                      0                       # What read queue length does an incoming req see
system.mem_ctrls.rdQLenPdf::25                      0                       # What read queue length does an incoming req see
system.mem_ctrls.rdQLenPdf::26                      0                       # What read queue length does an incoming req see
system.mem_ctrls.rdQLenPdf::27                      0                       # What read queue length does an incoming req see
system.mem_ctrls.rdQLenPdf::28                      0                       # What read queue length does an incoming req see
system.mem_ctrls.rdQLenPdf::29                      0                       # What read queue length does an incoming req see
system.mem_ctrls.rdQLenPdf::30                      0                       # What read queue length does an incoming req see
system.mem_ctrls.rdQLenPdf::31                      0                       # What read queue length does an incoming req see
system.mem_ctrls.wrQLenPdf::0                       0                       # What write queue length does an incoming req see
system.mem_ctrls.wrQLenPdf::1                       0                       # What write queue length does an incoming req see
system.mem_ctrls.wrQLenPdf::2                       0                       # What write queue length does an incoming req see
system.mem_ctrls.wrQLenPdf::3                       0                       # What write queue length does an incoming req see
system.mem_ctrls.wrQLenPdf::4                       0                       # What write queue length does an incoming req see
system.mem_ctrls.wrQLenPdf::5                       0                       # What write queue length does an incoming req see
system.mem_ctrls.wrQLenPdf::6                       0                       # What write queue length does an incoming req see
system.mem_ctrls.wrQLenPdf::7                       0                       # What write queue length does an incoming req see
system.mem_ctrls.wrQLenPdf::8                       0                       # What write queue length does an incoming req see
system.mem_ctrls.wrQLenPdf::9                       0                       # What write queue length does an incoming req see
system.mem_ctrls.wrQLenPdf::10                      0                       # What write queue length does an incoming req see
system.mem_ctrls.wrQLenPdf::11                      0                       # What write queue length does an incoming req see
system.mem_ctrls.wrQLenPdf::12                      0                       # What write queue length does an incoming req see
system.mem_ctrls.wrQLenPdf::13                      0                       # What write queue length does an incoming req see
system.mem_ctrls.wrQLenPdf::14                      0                       # What write queue length does an incoming req see
system.mem_ctrls.wrQLenPdf::15                  26207                       # What write queue length does an incoming req see
system.mem_ctrls.wrQLenPdf::16                  30951                       # What write queue length does an incoming req see
system.mem_ctrls.wrQLenPdf::17                  49110                       # What write queue length does an incoming req see
system.mem_ctrls.wrQLenPdf::18                  57250                       # What write queue length does an incoming req see
system.mem_ctrls.wrQLenPdf::19                  57235                       # What write queue length does an incoming req see
system.mem_ctrls.wrQLenPdf::20                  56670                       # What write queue length does an incoming req see
system.mem_ctrls.wrQLenPdf::21                  56301                       # What write queue length does an incoming req see
system.mem_ctrls.wrQLenPdf::22                  56240                       # What write queue length does an incoming req see
system.mem_ctrls.wrQLenPdf::23                  56026                       # What write queue length does an incoming req see
system.mem_ctrls.wrQLenPdf::24                  56003                       # What write queue length does an incoming req see
system.mem_ctrls.wrQLenPdf::25                  56035                       # What write queue length does an incoming req see
system.mem_ctrls.wrQLenPdf::26                  55958                       # What write queue length does an incoming req see
system.mem_ctrls.wrQLenPdf::27                  55956                       # What write queue length does an incoming req see
system.mem_ctrls.wrQLenPdf::28                  56017                       # What write queue length does an incoming req see
system.mem_ctrls.wrQLenPdf::29                  55986                       # What write queue length does an incoming req see
system.mem_ctrls.wrQLenPdf::30                  55875                       # What write queue length does an incoming req see
system.mem_ctrls.wrQLenPdf::31                  55802                       # What write queue length does an incoming req see
system.mem_ctrls.wrQLenPdf::32                  55618                       # What write queue length does an incoming req see
system.mem_ctrls.wrQLenPdf::33                    144                       # What write queue length does an incoming req see
system.mem_ctrls.wrQLenPdf::34                     33                       # What write queue length does an incoming req see
system.mem_ctrls.wrQLenPdf::35                     16                       # What write queue length does an incoming req see
system.mem_ctrls.wrQLenPdf::36                     12                       # What write queue length does an incoming req see
system.mem_ctrls.wrQLenPdf::37                     12                       # What write queue length does an incoming req see
system.mem_ctrls.wrQLenPdf::38                      7                       # What write queue length does an incoming req see
system.mem_ctrls.wrQLenPdf::39                      5                       # What write queue length does an incoming req see
system.mem_ctrls.wrQLenPdf::40                      3                       # What write queue length does an incoming req see
system.mem_ctrls.wrQLenPdf::41                      4                       # What write queue length does an incoming req see
system.mem_ctrls.wrQLenPdf::42                      2                       # What write queue length does an incoming req see
system.mem_ctrls.wrQLenPdf::43                      4                       # What write queue length does an incoming req see
system.mem_ctrls.wrQLenPdf::44                      3                       # What write queue length does an incoming req see
system.mem_ctrls.wrQLenPdf::45                      3                       # What write queue length does an incoming req see
system.mem_ctrls.wrQLenPdf::46                      1                       # What write queue length does an incoming req see
system.mem_ctrls.wrQLenPdf::47                      1                       # What write queue length does an incoming req see
system.mem_ctrls.wrQLenPdf::48                      1                       # What write queue length does an incoming req see
system.mem_ctrls.wrQLenPdf::49                      0                       # What write queue length does an incoming req see
system.mem_ctrls.wrQLenPdf::50                      0                       # What write queue length does an incoming req see
system.mem_ctrls.wrQLenPdf::51                      0                       # What write queue length does an incoming req see
system.mem_ctrls.wrQLenPdf::52                      0                       # What write queue length does an incoming req see
system.mem_ctrls.wrQLenPdf::53                      0                       # What write queue length does an incoming req see
system.mem_ctrls.wrQLenPdf::54                      0                       # What write queue length does an incoming req see
system.mem_ctrls.wrQLenPdf::55                      0                       # What write queue length does an incoming req see
system.mem_ctrls.wrQLenPdf::56                      0                       # What write queue length does an incoming req see
system.mem_ctrls.wrQLenPdf::57                      0                       # What write queue length does an incoming req see
system.mem_ctrls.wrQLenPdf::58                      0                       # What write queue length does an incoming req see
system.mem_ctrls.wrQLenPdf::59                      0                       # What write queue length does an incoming req see
system.mem_ctrls.wrQLenPdf::60                      0                       # What write queue length does an incoming req see
system.mem_ctrls.wrQLenPdf::61                      0                       # What write queue length does an incoming req see
system.mem_ctrls.wrQLenPdf::62                      0                       # What write queue length does an incoming req see
system.mem_ctrls.wrQLenPdf::63                      0                       # What write queue length does an incoming req see
system.mem_ctrls.bytesPerActivate::samples      1714800                       # Bytes accessed per row activation
system.mem_ctrls.bytesPerActivate::mean    123.330217                       # Bytes accessed per row activation
system.mem_ctrls.bytesPerActivate::gmean    93.149458                       # Bytes accessed per row activation
system.mem_ctrls.bytesPerActivate::stdev   149.550148                       # Bytes accessed per row activation
system.mem_ctrls.bytesPerActivate::0-127      1124524     65.58%     65.58% # Bytes accessed per row activation
system.mem_ctrls.bytesPerActivate::128-255       435284     25.38%     90.96% # Bytes accessed per row activation
system.mem_ctrls.bytesPerActivate::256-383        78582      4.58%     95.54% # Bytes accessed per row activation
system.mem_ctrls.bytesPerActivate::384-511        22861      1.33%     96.88% # Bytes accessed per row activation
system.mem_ctrls.bytesPerActivate::512-639        12679      0.74%     97.62% # Bytes accessed per row activation
system.mem_ctrls.bytesPerActivate::640-767         6693      0.39%     98.01% # Bytes accessed per row activation
system.mem_ctrls.bytesPerActivate::768-895         3401      0.20%     98.21% # Bytes accessed per row activation
system.mem_ctrls.bytesPerActivate::896-1023         3400      0.20%     98.40% # Bytes accessed per row activation
system.mem_ctrls.bytesPerActivate::1024-1151        27376      1.60%    100.00% # Bytes accessed per row activation
system.mem_ctrls.bytesPerActivate::total      1714800                       # Bytes accessed per row activation
system.mem_ctrls.rdPerTurnAround::samples        55603                       # Reads before turning the bus around for writes
system.mem_ctrls.rdPerTurnAround::mean      42.358002                       # Reads before turning the bus around for writes
system.mem_ctrls.rdPerTurnAround::stdev     45.631489                       # Reads before turning the bus around for writes
system.mem_ctrls.rdPerTurnAround::0-255         55481     99.78%     99.78% # Reads before turning the bus around for writes
system.mem_ctrls.rdPerTurnAround::256-511          106      0.19%     99.97% # Reads before turning the bus around for writes
system.mem_ctrls.rdPerTurnAround::512-767            6      0.01%     99.98% # Reads before turning the bus around for writes
system.mem_ctrls.rdPerTurnAround::768-1023            4      0.01%     99.99% # Reads before turning the bus around for writes
system.mem_ctrls.rdPerTurnAround::1024-1279            1      0.00%     99.99% # Reads before turning the bus around for writes
system.mem_ctrls.rdPerTurnAround::1280-1535            2      0.00%     99.99% # Reads before turning the bus around for writes
system.mem_ctrls.rdPerTurnAround::1792-2047            2      0.00%    100.00% # Reads before turning the bus around for writes
system.mem_ctrls.rdPerTurnAround::6656-6911            1      0.00%    100.00% # Reads before turning the bus around for writes
system.mem_ctrls.rdPerTurnAround::total         55603                       # Reads before turning the bus around for writes
system.mem_ctrls.wrPerTurnAround::samples        55603                       # Writes before turning the bus around for reads
system.mem_ctrls.wrPerTurnAround::mean      17.076183                       # Writes before turning the bus around for reads
system.mem_ctrls.wrPerTurnAround::gmean     17.045201                       # Writes before turning the bus around for reads
system.mem_ctrls.wrPerTurnAround::stdev      1.032556                       # Writes before turning the bus around for reads
system.mem_ctrls.wrPerTurnAround::16            24677     44.38%     44.38% # Writes before turning the bus around for reads
system.mem_ctrls.wrPerTurnAround::17             4267      7.67%     52.05% # Writes before turning the bus around for reads
system.mem_ctrls.wrPerTurnAround::18            24880     44.75%     96.80% # Writes before turning the bus around for reads
system.mem_ctrls.wrPerTurnAround::19             1470      2.64%     99.44% # Writes before turning the bus around for reads
system.mem_ctrls.wrPerTurnAround::20              210      0.38%     99.82% # Writes before turning the bus around for reads
system.mem_ctrls.wrPerTurnAround::21               62      0.11%     99.93% # Writes before turning the bus around for reads
system.mem_ctrls.wrPerTurnAround::22               19      0.03%     99.97% # Writes before turning the bus around for reads
system.mem_ctrls.wrPerTurnAround::23                9      0.02%     99.98% # Writes before turning the bus around for reads
system.mem_ctrls.wrPerTurnAround::24                6      0.01%     99.99% # Writes before turning the bus around for reads
system.mem_ctrls.wrPerTurnAround::25                3      0.01%    100.00% # Writes before turning the bus around for reads
system.mem_ctrls.wrPerTurnAround::total         55603                       # Writes before turning the bus around for reads
system.mem_ctrls.totQLat                  27601295747                       # Total ticks spent queuing
system.mem_ctrls.totMemAccLat             71757395747                       # Total ticks spent from burst creation until serviced by the DRAM
system.mem_ctrls.totBusLat                11774960000                       # Total ticks spent in databus transfers
system.mem_ctrls.avgQLat                     11720.34                       # Average queueing delay per DRAM burst
system.mem_ctrls.avgBusLat                    5000.00                       # Average bus latency per DRAM burst
system.mem_ctrls.avgMemAccLat                30470.34                       # Average memory access latency per DRAM burst
system.mem_ctrls.avgRdBW                        38.01                       # Average DRAM read bandwidth in MiByte/s
system.mem_ctrls.avgWrBW                        15.32                       # Average achieved write bandwidth in MiByte/s
system.mem_ctrls.avgRdBWSys                     38.02                       # Average system read bandwidth in MiByte/s
system.mem_ctrls.avgWrBWSys                     15.32                       # Average system write bandwidth in MiByte/s
system.mem_ctrls.peakBW                      12800.00                       # Theoretical peak bandwidth in MiByte/s
system.mem_ctrls.busUtil                         0.42                       # Data bus utilization in percentage
system.mem_ctrls.busUtilRead                     0.30                       # Data bus utilization in percentage for reads
system.mem_ctrls.busUtilWrite                    0.12                       # Data bus utilization in percentage for writes
system.mem_ctrls.avgRdQLen                       1.00                       # Average read queue length when enqueuing
system.mem_ctrls.avgWrQLen                      24.62                       # Average write queue length when enqueuing
system.mem_ctrls.readRowHits                  1361888                       # Number of row buffer hits during reads
system.mem_ctrls.writeRowHits                  227791                       # Number of row buffer hits during writes
system.mem_ctrls.readRowHitRate                 57.83                       # Row buffer hit rate for reads
system.mem_ctrls.writeRowHitRate                23.99                       # Row buffer hit rate for writes
system.mem_ctrls.avgGap                    1199749.19                       # Average gap between requests
system.mem_ctrls.pageHitRate                    48.11                       # Row buffer hit rate, read and write combined
system.mem_ctrls_0.actEnergy               6506710560                       # Energy for activate commands per rank (pJ)
system.mem_ctrls_0.preEnergy               3550288500                       # Energy for precharge commands per rank (pJ)
system.mem_ctrls_0.readEnergy              9267523200                       # Energy for read commands per rank (pJ)
system.mem_ctrls_0.writeEnergy             3088206000                       # Energy for write commands per rank (pJ)
system.mem_ctrls_0.refreshEnergy         259234900080                       # Energy for refresh commands per rank (pJ)
system.mem_ctrls_0.actBackEnergy         525685646115                       # Energy for active background per rank (pJ)
system.mem_ctrls_0.preBackEnergy         1920264256500                       # Energy for precharge background per rank (pJ)
system.mem_ctrls_0.totalEnergy           2727597530955                       # Total energy per rank (pJ)
system.mem_ctrls_0.averagePower            687.227683                       # Core power per rank (mW)
system.mem_ctrls_0.memoryStateTime::IDLE 3190504173750                       # Time in different power states
system.mem_ctrls_0.memoryStateTime::REF  132412800000                       # Time in different power states
system.mem_ctrls_0.memoryStateTime::PRE_PDN            0                       # Time in different power states
system.mem_ctrls_0.memoryStateTime::ACT  642464548250                       # Time in different power states
system.mem_ctrls_0.memoryStateTime::ACT_PDN            0                       # Time in different power states
system.mem_ctrls_1.actEnergy               6491847600                       # Energy for activate commands per rank (pJ)
system.mem_ctrls_1.preEnergy               3542178750                       # Energy for precharge commands per rank (pJ)
system.mem_ctrls_1.readEnergy              9237001800                       # Energy for read commands per rank (pJ)
system.mem_ctrls_1.writeEnergy             3067392240                       # Energy for write commands per rank (pJ)
system.mem_ctrls_1.refreshEnergy         259234900080                       # Energy for refresh commands per rank (pJ)
system.mem_ctrls_1.actBackEnergy         522867434445                       # Energy for active background per rank (pJ)
system.mem_ctrls_1.preBackEnergy         1922736372000                       # Energy for precharge background per rank (pJ)
system.mem_ctrls_1.totalEnergy           2727177126915                       # Total energy per rank (pJ)
system.mem_ctrls_1.averagePower            687.121761                       # Core power per rank (mW)
system.mem_ctrls_1.memoryStateTime::IDLE 3194590681000                       # Time in different power states
system.mem_ctrls_1.memoryStateTime::REF  132412800000                       # Time in different power states
system.mem_ctrls_1.memoryStateTime::PRE_PDN            0                       # Time in different power states
system.mem_ctrls_1.memoryStateTime::ACT  638377550500                       # Time in different power states
system.mem_ctrls_1.memoryStateTime::ACT_PDN            0                       # Time in different power states
system.cpu_voltage_domain.voltage                   1                       # Voltage in Volts
system.cpu_clk_domain.clock                       500                       # Clock period in ticks
system.cpu0.apic_clk_domain.clock                8000                       # Clock period in ticks
system.cpu0.numCycles                      7930510904                       # number of cpu cycles simulated
system.cpu0.numWorkItemsStarted                     0                       # number of work items this cpu started
system.cpu0.numWorkItemsCompleted                   0                       # number of work items this cpu completed
system.cpu0.kern.inst.arm                           0                       # number of arm instructions executed
system.cpu0.kern.inst.quiesce                       0                       # number of quiesce instructions executed
system.cpu0.committedInsts                    4159072                       # Number of instructions committed
system.cpu0.committedOps                      8762981                       # Number of ops (including micro ops) committed
system.cpu0.num_int_alu_accesses              8588249                       # Number of integer alu accesses
system.cpu0.num_fp_alu_accesses                  1814                       # Number of float alu accesses
system.cpu0.num_func_calls                     241802                       # number of times a function call or return occured
system.cpu0.num_conditional_control_insts       624003                       # number of instructions that are conditional controls
system.cpu0.num_int_insts                     8588249                       # number of integer instructions
system.cpu0.num_fp_insts                         1814                       # number of float instructions
system.cpu0.num_int_register_reads           17405680                       # number of times the integer registers were read
system.cpu0.num_int_register_writes           7077367                       # number of times the integer registers were written
system.cpu0.num_fp_register_reads                3048                       # number of times the floating registers were read
system.cpu0.num_fp_register_writes               1440                       # number of times the floating registers were written
system.cpu0.num_cc_register_reads             4971769                       # number of times the CC registers were read
system.cpu0.num_cc_register_writes            2731293                       # number of times the CC registers were written
system.cpu0.num_mem_refs                      2039067                       # number of memory refs
system.cpu0.num_load_insts                    1264251                       # Number of load instructions
system.cpu0.num_store_insts                    774816                       # Number of store instructions
system.cpu0.num_idle_cycles              7911890873.007302                       # Number of idle cycles
system.cpu0.num_busy_cycles              18620030.992697                       # Number of busy cycles
system.cpu0.not_idle_fraction                0.002348                       # Percentage of non-idle cycles
system.cpu0.idle_fraction                    0.997652                       # Percentage of idle cycles
system.cpu0.Branches                           938134                       # Number of branches fetched
system.cpu0.op_class::No_OpClass               129610      1.48%      1.48% # Class of executed instruction
system.cpu0.op_class::IntAlu                  6535873     74.58%     76.06% # Class of executed instruction
system.cpu0.op_class::IntMult                   14427      0.16%     76.23% # Class of executed instruction
system.cpu0.op_class::IntDiv                    42726      0.49%     76.72% # Class of executed instruction
system.cpu0.op_class::FloatAdd                   1368      0.02%     76.73% # Class of executed instruction
system.cpu0.op_class::FloatCmp                      0      0.00%     76.73% # Class of executed instruction
system.cpu0.op_class::FloatCvt                      0      0.00%     76.73% # Class of executed instruction
system.cpu0.op_class::FloatMult                     0      0.00%     76.73% # Class of executed instruction
system.cpu0.op_class::FloatDiv                      0      0.00%     76.73% # Class of executed instruction
system.cpu0.op_class::FloatSqrt                     0      0.00%     76.73% # Class of executed instruction
system.cpu0.op_class::SimdAdd                       0      0.00%     76.73% # Class of executed instruction
system.cpu0.op_class::SimdAddAcc                    0      0.00%     76.73% # Class of executed instruction
system.cpu0.op_class::SimdAlu                       0      0.00%     76.73% # Class of executed instruction
system.cpu0.op_class::SimdCmp                       0      0.00%     76.73% # Class of executed instruction
system.cpu0.op_class::SimdCvt                       0      0.00%     76.73% # Class of executed instruction
system.cpu0.op_class::SimdMisc                      0      0.00%     76.73% # Class of executed instruction
system.cpu0.op_class::SimdMult                      0      0.00%     76.73% # Class of executed instruction
system.cpu0.op_class::SimdMultAcc                   0      0.00%     76.73% # Class of executed instruction
system.cpu0.op_class::SimdShift                     0      0.00%     76.73% # Class of executed instruction
system.cpu0.op_class::SimdShiftAcc                  0      0.00%     76.73% # Class of executed instruction
system.cpu0.op_class::SimdSqrt                      0      0.00%     76.73% # Class of executed instruction
system.cpu0.op_class::SimdFloatAdd                  0      0.00%     76.73% # Class of executed instruction
system.cpu0.op_class::SimdFloatAlu                  0      0.00%     76.73% # Class of executed instruction
system.cpu0.op_class::SimdFloatCmp                  0      0.00%     76.73% # Class of executed instruction
system.cpu0.op_class::SimdFloatCvt                  0      0.00%     76.73% # Class of executed instruction
system.cpu0.op_class::SimdFloatDiv                  0      0.00%     76.73% # Class of executed instruction
system.cpu0.op_class::SimdFloatMisc                 0      0.00%     76.73% # Class of executed instruction
system.cpu0.op_class::SimdFloatMult                 0      0.00%     76.73% # Class of executed instruction
system.cpu0.op_class::SimdFloatMultAcc              0      0.00%     76.73% # Class of executed instruction
system.cpu0.op_class::SimdFloatSqrt                 0      0.00%     76.73% # Class of executed instruction
system.cpu0.op_class::MemRead                 1264251     14.43%     91.16% # Class of executed instruction
system.cpu0.op_class::MemWrite                 774816      8.84%    100.00% # Class of executed instruction
system.cpu0.op_class::IprAccess                     0      0.00%    100.00% # Class of executed instruction
system.cpu0.op_class::InstPrefetch                  0      0.00%    100.00% # Class of executed instruction
system.cpu0.op_class::total                   8763071                       # Class of executed instruction
system.cpu1.apic_clk_domain.clock                8000                       # Clock period in ticks
system.cpu1.numCycles                      7934073041                       # number of cpu cycles simulated
system.cpu1.numWorkItemsStarted                     0                       # number of work items this cpu started
system.cpu1.numWorkItemsCompleted                   0                       # number of work items this cpu completed
system.cpu1.kern.inst.arm                           0                       # number of arm instructions executed
system.cpu1.kern.inst.quiesce                       0                       # number of quiesce instructions executed
system.cpu1.committedInsts                    2814406                       # Number of instructions committed
system.cpu1.committedOps                      6046877                       # Number of ops (including micro ops) committed
system.cpu1.num_int_alu_accesses              5916173                       # Number of integer alu accesses
system.cpu1.num_fp_alu_accesses                   154                       # Number of float alu accesses
system.cpu1.num_func_calls                     167779                       # number of times a function call or return occured
system.cpu1.num_conditional_control_insts       421510                       # number of instructions that are conditional controls
system.cpu1.num_int_insts                     5916173                       # number of integer instructions
system.cpu1.num_fp_insts                          154                       # number of float instructions
system.cpu1.num_int_register_reads           12035188                       # number of times the integer registers were read
system.cpu1.num_int_register_writes           4903064                       # number of times the integer registers were written
system.cpu1.num_fp_register_reads                 258                       # number of times the floating registers were read
system.cpu1.num_fp_register_writes                126                       # number of times the floating registers were written
system.cpu1.num_cc_register_reads             3352546                       # number of times the CC registers were read
system.cpu1.num_cc_register_writes            1782697                       # number of times the CC registers were written
system.cpu1.num_mem_refs                      1453492                       # number of memory refs
system.cpu1.num_load_insts                     903840                       # Number of load instructions
system.cpu1.num_store_insts                    549652                       # Number of store instructions
system.cpu1.num_idle_cycles              7921769136.647352                       # Number of idle cycles
system.cpu1.num_busy_cycles              12303904.352647                       # Number of busy cycles
system.cpu1.not_idle_fraction                0.001551                       # Percentage of non-idle cycles
system.cpu1.idle_fraction                    0.998449                       # Percentage of idle cycles
system.cpu1.Branches                           643451                       # Number of branches fetched
system.cpu1.op_class::No_OpClass               108970      1.80%      1.80% # Class of executed instruction
system.cpu1.op_class::IntAlu                  4430891     73.28%     75.08% # Class of executed instruction
system.cpu1.op_class::IntMult                   15235      0.25%     75.33% # Class of executed instruction
system.cpu1.op_class::IntDiv                    38192      0.63%     75.96% # Class of executed instruction
system.cpu1.op_class::FloatAdd                    120      0.00%     75.96% # Class of executed instruction
system.cpu1.op_class::FloatCmp                      0      0.00%     75.96% # Class of executed instruction
system.cpu1.op_class::FloatCvt                      0      0.00%     75.96% # Class of executed instruction
system.cpu1.op_class::FloatMult                     0      0.00%     75.96% # Class of executed instruction
system.cpu1.op_class::FloatDiv                      0      0.00%     75.96% # Class of executed instruction
system.cpu1.op_class::FloatSqrt                     0      0.00%     75.96% # Class of executed instruction
system.cpu1.op_class::SimdAdd                       0      0.00%     75.96% # Class of executed instruction
system.cpu1.op_class::SimdAddAcc                    0      0.00%     75.96% # Class of executed instruction
system.cpu1.op_class::SimdAlu                       0      0.00%     75.96% # Class of executed instruction
system.cpu1.op_class::SimdCmp                       0      0.00%     75.96% # Class of executed instruction
system.cpu1.op_class::SimdCvt                       0      0.00%     75.96% # Class of executed instruction
system.cpu1.op_class::SimdMisc                      0      0.00%     75.96% # Class of executed instruction
system.cpu1.op_class::SimdMult                      0      0.00%     75.96% # Class of executed instruction
system.cpu1.op_class::SimdMultAcc                   0      0.00%     75.96% # Class of executed instruction
system.cpu1.op_class::SimdShift                     0      0.00%     75.96% # Class of executed instruction
system.cpu1.op_class::SimdShiftAcc                  0      0.00%     75.96% # Class of executed instruction
system.cpu1.op_class::SimdSqrt                      0      0.00%     75.96% # Class of executed instruction
system.cpu1.op_class::SimdFloatAdd                  0      0.00%     75.96% # Class of executed instruction
system.cpu1.op_class::SimdFloatAlu                  0      0.00%     75.96% # Class of executed instruction
system.cpu1.op_class::SimdFloatCmp                  0      0.00%     75.96% # Class of executed instruction
system.cpu1.op_class::SimdFloatCvt                  0      0.00%     75.96% # Class of executed instruction
system.cpu1.op_class::SimdFloatDiv                  0      0.00%     75.96% # Class of executed instruction
system.cpu1.op_class::SimdFloatMisc                 0      0.00%     75.96% # Class of executed instruction
system.cpu1.op_class::SimdFloatMult                 0      0.00%     75.96% # Class of executed instruction
system.cpu1.op_class::SimdFloatMultAcc              0      0.00%     75.96% # Class of executed instruction
system.cpu1.op_class::SimdFloatSqrt                 0      0.00%     75.96% # Class of executed instruction
system.cpu1.op_class::MemRead                  903840     14.95%     90.91% # Class of executed instruction
system.cpu1.op_class::MemWrite                 549652      9.09%    100.00% # Class of executed instruction
system.cpu1.op_class::IprAccess                     0      0.00%    100.00% # Class of executed instruction
system.cpu1.op_class::InstPrefetch                  0      0.00%    100.00% # Class of executed instruction
system.cpu1.op_class::total                   6046900                       # Class of executed instruction
system.cpu2.apic_clk_domain.clock                8000                       # Clock period in ticks
system.cpu2.numCycles                      7932664086                       # number of cpu cycles simulated
system.cpu2.numWorkItemsStarted                     0                       # number of work items this cpu started
system.cpu2.numWorkItemsCompleted                   0                       # number of work items this cpu completed
system.cpu2.kern.inst.arm                           0                       # number of arm instructions executed
system.cpu2.kern.inst.quiesce                       0                       # number of quiesce instructions executed
system.cpu2.committedInsts                 2239451709                       # Number of instructions committed
system.cpu2.committedOps                   3131870009                       # Number of ops (including micro ops) committed
system.cpu2.num_int_alu_accesses           1364915317                       # Number of integer alu accesses
system.cpu2.num_fp_alu_accesses            2127680264                       # Number of float alu accesses
system.cpu2.num_func_calls                    4833811                       # number of times a function call or return occured
system.cpu2.num_conditional_control_insts    125339763                       # number of instructions that are conditional controls
system.cpu2.num_int_insts                  1364915317                       # number of integer instructions
system.cpu2.num_fp_insts                   2127680264                       # number of float instructions
system.cpu2.num_int_register_reads         2745340214                       # number of times the integer registers were read
system.cpu2.num_int_register_writes         828409208                       # number of times the integer registers were written
system.cpu2.num_fp_register_reads          4601234004                       # number of times the floating registers were read
system.cpu2.num_fp_register_writes         2077617833                       # number of times the floating registers were written
system.cpu2.num_cc_register_reads           735881370                       # number of times the CC registers were read
system.cpu2.num_cc_register_writes          430127162                       # number of times the CC registers were written
system.cpu2.num_mem_refs                    408311650                       # number of memory refs
system.cpu2.num_load_insts                  353597999                       # Number of load instructions
system.cpu2.num_store_insts                  54713651                       # Number of store instructions
system.cpu2.num_idle_cycles              4930390.081262                       # Number of idle cycles
system.cpu2.num_busy_cycles              7927733695.918737                       # Number of busy cycles
system.cpu2.not_idle_fraction                0.999378                       # Percentage of non-idle cycles
system.cpu2.idle_fraction                    0.000622                       # Percentage of idle cycles
system.cpu2.Branches                        163301894                       # Number of branches fetched
system.cpu2.op_class::No_OpClass              2281979      0.07%      0.07% # Class of executed instruction
system.cpu2.op_class::IntAlu               1676610917     53.53%     53.61% # Class of executed instruction
system.cpu2.op_class::IntMult                   79057      0.00%     53.61% # Class of executed instruction
system.cpu2.op_class::IntDiv                    99416      0.00%     53.61% # Class of executed instruction
system.cpu2.op_class::FloatAdd             1044495651     33.35%     86.96% # Class of executed instruction
system.cpu2.op_class::FloatCmp                      0      0.00%     86.96% # Class of executed instruction
system.cpu2.op_class::FloatCvt                      0      0.00%     86.96% # Class of executed instruction
system.cpu2.op_class::FloatMult                     0      0.00%     86.96% # Class of executed instruction
system.cpu2.op_class::FloatDiv                      0      0.00%     86.96% # Class of executed instruction
system.cpu2.op_class::FloatSqrt                     0      0.00%     86.96% # Class of executed instruction
system.cpu2.op_class::SimdAdd                       0      0.00%     86.96% # Class of executed instruction
system.cpu2.op_class::SimdAddAcc                    0      0.00%     86.96% # Class of executed instruction
system.cpu2.op_class::SimdAlu                       0      0.00%     86.96% # Class of executed instruction
system.cpu2.op_class::SimdCmp                       0      0.00%     86.96% # Class of executed instruction
system.cpu2.op_class::SimdCvt                       0      0.00%     86.96% # Class of executed instruction
system.cpu2.op_class::SimdMisc                      0      0.00%     86.96% # Class of executed instruction
system.cpu2.op_class::SimdMult                      0      0.00%     86.96% # Class of executed instruction
system.cpu2.op_class::SimdMultAcc                   0      0.00%     86.96% # Class of executed instruction
system.cpu2.op_class::SimdShift                     0      0.00%     86.96% # Class of executed instruction
system.cpu2.op_class::SimdShiftAcc                  0      0.00%     86.96% # Class of executed instruction
system.cpu2.op_class::SimdSqrt                      0      0.00%     86.96% # Class of executed instruction
system.cpu2.op_class::SimdFloatAdd                  0      0.00%     86.96% # Class of executed instruction
system.cpu2.op_class::SimdFloatAlu                  0      0.00%     86.96% # Class of executed instruction
system.cpu2.op_class::SimdFloatCmp                  0      0.00%     86.96% # Class of executed instruction
system.cpu2.op_class::SimdFloatCvt                  0      0.00%     86.96% # Class of executed instruction
system.cpu2.op_class::SimdFloatDiv                  0      0.00%     86.96% # Class of executed instruction
system.cpu2.op_class::SimdFloatMisc                 0      0.00%     86.96% # Class of executed instruction
system.cpu2.op_class::SimdFloatMult                 0      0.00%     86.96% # Class of executed instruction
system.cpu2.op_class::SimdFloatMultAcc              0      0.00%     86.96% # Class of executed instruction
system.cpu2.op_class::SimdFloatSqrt                 0      0.00%     86.96% # Class of executed instruction
system.cpu2.op_class::MemRead               353597999     11.29%     98.25% # Class of executed instruction
system.cpu2.op_class::MemWrite               54713651      1.75%    100.00% # Class of executed instruction
system.cpu2.op_class::IprAccess                     0      0.00%    100.00% # Class of executed instruction
system.cpu2.op_class::InstPrefetch                  0      0.00%    100.00% # Class of executed instruction
system.cpu2.op_class::total                3131878670                       # Class of executed instruction
system.cpu3.apic_clk_domain.clock                8000                       # Clock period in ticks
system.cpu3.numCycles                      7931897967                       # number of cpu cycles simulated
system.cpu3.numWorkItemsStarted                     0                       # number of work items this cpu started
system.cpu3.numWorkItemsCompleted                   0                       # number of work items this cpu completed
system.cpu3.kern.inst.arm                           0                       # number of arm instructions executed
system.cpu3.kern.inst.quiesce                       0                       # number of quiesce instructions executed
system.cpu3.committedInsts                    2812593                       # Number of instructions committed
system.cpu3.committedOps                      6074855                       # Number of ops (including micro ops) committed
system.cpu3.num_int_alu_accesses              5940180                       # Number of integer alu accesses
system.cpu3.num_fp_alu_accesses                     0                       # Number of float alu accesses
system.cpu3.num_func_calls                     167472                       # number of times a function call or return occured
system.cpu3.num_conditional_control_insts       427105                       # number of instructions that are conditional controls
system.cpu3.num_int_insts                     5940180                       # number of integer instructions
system.cpu3.num_fp_insts                            0                       # number of float instructions
system.cpu3.num_int_register_reads           12075857                       # number of times the integer registers were read
system.cpu3.num_int_register_writes           4933321                       # number of times the integer registers were written
system.cpu3.num_fp_register_reads                   0                       # number of times the floating registers were read
system.cpu3.num_fp_register_writes                  0                       # number of times the floating registers were written
system.cpu3.num_cc_register_reads             3422591                       # number of times the CC registers were read
system.cpu3.num_cc_register_writes            1794335                       # number of times the CC registers were written
system.cpu3.num_mem_refs                      1444866                       # number of memory refs
system.cpu3.num_load_insts                     898224                       # Number of load instructions
system.cpu3.num_store_insts                    546642                       # Number of store instructions
system.cpu3.num_idle_cycles              7919650654.300303                       # Number of idle cycles
system.cpu3.num_busy_cycles              12247312.699697                       # Number of busy cycles
system.cpu3.not_idle_fraction                0.001544                       # Percentage of non-idle cycles
system.cpu3.idle_fraction                    0.998456                       # Percentage of idle cycles
system.cpu3.Branches                           649274                       # Number of branches fetched
system.cpu3.op_class::No_OpClass               115267      1.90%      1.90% # Class of executed instruction
system.cpu3.op_class::IntAlu                  4460821     73.43%     75.33% # Class of executed instruction
system.cpu3.op_class::IntMult                   12296      0.20%     75.53% # Class of executed instruction
system.cpu3.op_class::IntDiv                    41608      0.68%     76.22% # Class of executed instruction
system.cpu3.op_class::FloatAdd                      0      0.00%     76.22% # Class of executed instruction
system.cpu3.op_class::FloatCmp                      0      0.00%     76.22% # Class of executed instruction
system.cpu3.op_class::FloatCvt                      0      0.00%     76.22% # Class of executed instruction
system.cpu3.op_class::FloatMult                     0      0.00%     76.22% # Class of executed instruction
system.cpu3.op_class::FloatDiv                      0      0.00%     76.22% # Class of executed instruction
system.cpu3.op_class::FloatSqrt                     0      0.00%     76.22% # Class of executed instruction
system.cpu3.op_class::SimdAdd                       0      0.00%     76.22% # Class of executed instruction
system.cpu3.op_class::SimdAddAcc                    0      0.00%     76.22% # Class of executed instruction
system.cpu3.op_class::SimdAlu                       0      0.00%     76.22% # Class of executed instruction
system.cpu3.op_class::SimdCmp                       0      0.00%     76.22% # Class of executed instruction
system.cpu3.op_class::SimdCvt                       0      0.00%     76.22% # Class of executed instruction
system.cpu3.op_class::SimdMisc                      0      0.00%     76.22% # Class of executed instruction
system.cpu3.op_class::SimdMult                      0      0.00%     76.22% # Class of executed instruction
system.cpu3.op_class::SimdMultAcc                   0      0.00%     76.22% # Class of executed instruction
system.cpu3.op_class::SimdShift                     0      0.00%     76.22% # Class of executed instruction
system.cpu3.op_class::SimdShiftAcc                  0      0.00%     76.22% # Class of executed instruction
system.cpu3.op_class::SimdSqrt                      0      0.00%     76.22% # Class of executed instruction
system.cpu3.op_class::SimdFloatAdd                  0      0.00%     76.22% # Class of executed instruction
system.cpu3.op_class::SimdFloatAlu                  0      0.00%     76.22% # Class of executed instruction
system.cpu3.op_class::SimdFloatCmp                  0      0.00%     76.22% # Class of executed instruction
system.cpu3.op_class::SimdFloatCvt                  0      0.00%     76.22% # Class of executed instruction
system.cpu3.op_class::SimdFloatDiv                  0      0.00%     76.22% # Class of executed instruction
system.cpu3.op_class::SimdFloatMisc                 0      0.00%     76.22% # Class of executed instruction
system.cpu3.op_class::SimdFloatMult                 0      0.00%     76.22% # Class of executed instruction
system.cpu3.op_class::SimdFloatMultAcc              0      0.00%     76.22% # Class of executed instruction
system.cpu3.op_class::SimdFloatSqrt                 0      0.00%     76.22% # Class of executed instruction
system.cpu3.op_class::MemRead                  898224     14.79%     91.00% # Class of executed instruction
system.cpu3.op_class::MemWrite                 546642      9.00%    100.00% # Class of executed instruction
system.cpu3.op_class::IprAccess                     0      0.00%    100.00% # Class of executed instruction
system.cpu3.op_class::InstPrefetch                  0      0.00%    100.00% # Class of executed instruction
system.cpu3.op_class::total                   6074858                       # Class of executed instruction
system.iobus.trans_dist::ReadReq                  198                       # Transaction distribution
system.iobus.trans_dist::ReadResp                 198                       # Transaction distribution
system.iobus.trans_dist::WriteReq                4106                       # Transaction distribution
system.iobus.trans_dist::WriteResp               4106                       # Transaction distribution
system.iobus.trans_dist::MessageReq                18                       # Transaction distribution
system.iobus.trans_dist::MessageResp               18                       # Transaction distribution
system.iobus.pkt_count_system.pc.south_bridge.io_apic.int_master::system.ruby.l1_cntrl0.sequencer.pio-slave-port            4                       # Packet count per connected master and slave (bytes)
system.iobus.pkt_count_system.pc.south_bridge.io_apic.int_master::system.ruby.l1_cntrl1.sequencer.pio-slave-port            4                       # Packet count per connected master and slave (bytes)
system.iobus.pkt_count_system.pc.south_bridge.io_apic.int_master::system.ruby.l1_cntrl2.sequencer.pio-slave-port            4                       # Packet count per connected master and slave (bytes)
system.iobus.pkt_count_system.pc.south_bridge.io_apic.int_master::system.ruby.l1_cntrl3.sequencer.pio-slave-port            6                       # Packet count per connected master and slave (bytes)
system.iobus.pkt_count_system.pc.south_bridge.io_apic.int_master::total           18                       # Packet count per connected master and slave (bytes)
system.iobus.pkt_count_system.ruby.l1_cntrl0.sequencer.mem-master-port::system.pc.south_bridge.ide.pio           46                       # Packet count per connected master and slave (bytes)
system.iobus.pkt_count_system.ruby.l1_cntrl0.sequencer.mem-master-port::system.pc.south_bridge.io_apic.pio            8                       # Packet count per connected master and slave (bytes)
system.iobus.pkt_count_system.ruby.l1_cntrl0.sequencer.mem-master-port::system.ruby.l1_cntrl0.sequencer.pio-slave-port         2008                       # Packet count per connected master and slave (bytes)
system.iobus.pkt_count_system.ruby.l1_cntrl0.sequencer.mem-master-port::system.ruby.l1_cntrl1.sequencer.pio-slave-port            2                       # Packet count per connected master and slave (bytes)
system.iobus.pkt_count_system.ruby.l1_cntrl0.sequencer.mem-master-port::system.ruby.l1_cntrl2.sequencer.pio-slave-port            2                       # Packet count per connected master and slave (bytes)
system.iobus.pkt_count_system.ruby.l1_cntrl0.sequencer.mem-master-port::system.ruby.l1_cntrl3.sequencer.pio-slave-port            2                       # Packet count per connected master and slave (bytes)
system.iobus.pkt_count_system.ruby.l1_cntrl0.sequencer.mem-master-port::total         2068                       # Packet count per connected master and slave (bytes)
system.iobus.pkt_count_system.ruby.l1_cntrl1.sequencer.mem-master-port::system.pc.south_bridge.ide.pio           12                       # Packet count per connected master and slave (bytes)
system.iobus.pkt_count_system.ruby.l1_cntrl1.sequencer.mem-master-port::system.pc.south_bridge.io_apic.pio            6                       # Packet count per connected master and slave (bytes)
system.iobus.pkt_count_system.ruby.l1_cntrl1.sequencer.mem-master-port::system.pc.com_1.pio           22                       # Packet count per connected master and slave (bytes)
system.iobus.pkt_count_system.ruby.l1_cntrl1.sequencer.mem-master-port::system.ruby.l1_cntrl1.sequencer.pio-slave-port         1998                       # Packet count per connected master and slave (bytes)
system.iobus.pkt_count_system.ruby.l1_cntrl1.sequencer.mem-master-port::system.ruby.l1_cntrl2.sequencer.pio-slave-port            2                       # Packet count per connected master and slave (bytes)
system.iobus.pkt_count_system.ruby.l1_cntrl1.sequencer.mem-master-port::total         2040                       # Packet count per connected master and slave (bytes)
system.iobus.pkt_count_system.ruby.l1_cntrl2.sequencer.mem-master-port::system.pc.south_bridge.ide.pio           34                       # Packet count per connected master and slave (bytes)
system.iobus.pkt_count_system.ruby.l1_cntrl2.sequencer.mem-master-port::system.pc.south_bridge.io_apic.pio           14                       # Packet count per connected master and slave (bytes)
system.iobus.pkt_count_system.ruby.l1_cntrl2.sequencer.mem-master-port::system.pc.com_1.pio          174                       # Packet count per connected master and slave (bytes)
system.iobus.pkt_count_system.ruby.l1_cntrl2.sequencer.mem-master-port::system.ruby.l1_cntrl1.sequencer.pio-slave-port            2                       # Packet count per connected master and slave (bytes)
system.iobus.pkt_count_system.ruby.l1_cntrl2.sequencer.mem-master-port::system.ruby.l1_cntrl2.sequencer.pio-slave-port         2016                       # Packet count per connected master and slave (bytes)
system.iobus.pkt_count_system.ruby.l1_cntrl2.sequencer.mem-master-port::system.ruby.l1_cntrl3.sequencer.pio-slave-port            6                       # Packet count per connected master and slave (bytes)
system.iobus.pkt_count_system.ruby.l1_cntrl2.sequencer.mem-master-port::total         2246                       # Packet count per connected master and slave (bytes)
system.iobus.pkt_count_system.ruby.l1_cntrl3.sequencer.mem-master-port::system.pc.south_bridge.io_apic.pio           22                       # Packet count per connected master and slave (bytes)
system.iobus.pkt_count_system.ruby.l1_cntrl3.sequencer.mem-master-port::system.pc.com_1.pio          244                       # Packet count per connected master and slave (bytes)
system.iobus.pkt_count_system.ruby.l1_cntrl3.sequencer.mem-master-port::system.ruby.l1_cntrl0.sequencer.pio-slave-port            2                       # Packet count per connected master and slave (bytes)
system.iobus.pkt_count_system.ruby.l1_cntrl3.sequencer.mem-master-port::system.ruby.l1_cntrl3.sequencer.pio-slave-port         2004                       # Packet count per connected master and slave (bytes)
system.iobus.pkt_count_system.ruby.l1_cntrl3.sequencer.mem-master-port::total         2272                       # Packet count per connected master and slave (bytes)
system.iobus.pkt_count::total                    8644                       # Packet count per connected master and slave (bytes)
system.iobus.pkt_size_system.pc.south_bridge.io_apic.int_master::system.ruby.l1_cntrl0.sequencer.pio-slave-port            8                       # Cumulative packet size per connected master and slave (bytes)
system.iobus.pkt_size_system.pc.south_bridge.io_apic.int_master::system.ruby.l1_cntrl1.sequencer.pio-slave-port            8                       # Cumulative packet size per connected master and slave (bytes)
system.iobus.pkt_size_system.pc.south_bridge.io_apic.int_master::system.ruby.l1_cntrl2.sequencer.pio-slave-port            8                       # Cumulative packet size per connected master and slave (bytes)
system.iobus.pkt_size_system.pc.south_bridge.io_apic.int_master::system.ruby.l1_cntrl3.sequencer.pio-slave-port           12                       # Cumulative packet size per connected master and slave (bytes)
system.iobus.pkt_size_system.pc.south_bridge.io_apic.int_master::total           36                       # Cumulative packet size per connected master and slave (bytes)
system.iobus.pkt_size_system.ruby.l1_cntrl0.sequencer.mem-master-port::system.pc.south_bridge.ide.pio           26                       # Cumulative packet size per connected master and slave (bytes)
system.iobus.pkt_size_system.ruby.l1_cntrl0.sequencer.mem-master-port::system.pc.south_bridge.io_apic.pio           16                       # Cumulative packet size per connected master and slave (bytes)
system.iobus.pkt_size_system.ruby.l1_cntrl0.sequencer.mem-master-port::system.ruby.l1_cntrl0.sequencer.pio-slave-port         4016                       # Cumulative packet size per connected master and slave (bytes)
system.iobus.pkt_size_system.ruby.l1_cntrl0.sequencer.mem-master-port::system.ruby.l1_cntrl1.sequencer.pio-slave-port            4                       # Cumulative packet size per connected master and slave (bytes)
system.iobus.pkt_size_system.ruby.l1_cntrl0.sequencer.mem-master-port::system.ruby.l1_cntrl2.sequencer.pio-slave-port            4                       # Cumulative packet size per connected master and slave (bytes)
system.iobus.pkt_size_system.ruby.l1_cntrl0.sequencer.mem-master-port::system.ruby.l1_cntrl3.sequencer.pio-slave-port            4                       # Cumulative packet size per connected master and slave (bytes)
system.iobus.pkt_size_system.ruby.l1_cntrl0.sequencer.mem-master-port::total         4070                       # Cumulative packet size per connected master and slave (bytes)
system.iobus.pkt_size_system.ruby.l1_cntrl1.sequencer.mem-master-port::system.pc.south_bridge.ide.pio            6                       # Cumulative packet size per connected master and slave (bytes)
system.iobus.pkt_size_system.ruby.l1_cntrl1.sequencer.mem-master-port::system.pc.south_bridge.io_apic.pio           12                       # Cumulative packet size per connected master and slave (bytes)
system.iobus.pkt_size_system.ruby.l1_cntrl1.sequencer.mem-master-port::system.pc.com_1.pio           11                       # Cumulative packet size per connected master and slave (bytes)
system.iobus.pkt_size_system.ruby.l1_cntrl1.sequencer.mem-master-port::system.ruby.l1_cntrl1.sequencer.pio-slave-port         3996                       # Cumulative packet size per connected master and slave (bytes)
system.iobus.pkt_size_system.ruby.l1_cntrl1.sequencer.mem-master-port::system.ruby.l1_cntrl2.sequencer.pio-slave-port            4                       # Cumulative packet size per connected master and slave (bytes)
system.iobus.pkt_size_system.ruby.l1_cntrl1.sequencer.mem-master-port::total         4029                       # Cumulative packet size per connected master and slave (bytes)
system.iobus.pkt_size_system.ruby.l1_cntrl2.sequencer.mem-master-port::system.pc.south_bridge.ide.pio           20                       # Cumulative packet size per connected master and slave (bytes)
system.iobus.pkt_size_system.ruby.l1_cntrl2.sequencer.mem-master-port::system.pc.south_bridge.io_apic.pio           28                       # Cumulative packet size per connected master and slave (bytes)
system.iobus.pkt_size_system.ruby.l1_cntrl2.sequencer.mem-master-port::system.pc.com_1.pio           87                       # Cumulative packet size per connected master and slave (bytes)
system.iobus.pkt_size_system.ruby.l1_cntrl2.sequencer.mem-master-port::system.ruby.l1_cntrl1.sequencer.pio-slave-port            4                       # Cumulative packet size per connected master and slave (bytes)
system.iobus.pkt_size_system.ruby.l1_cntrl2.sequencer.mem-master-port::system.ruby.l1_cntrl2.sequencer.pio-slave-port         4032                       # Cumulative packet size per connected master and slave (bytes)
system.iobus.pkt_size_system.ruby.l1_cntrl2.sequencer.mem-master-port::system.ruby.l1_cntrl3.sequencer.pio-slave-port           12                       # Cumulative packet size per connected master and slave (bytes)
system.iobus.pkt_size_system.ruby.l1_cntrl2.sequencer.mem-master-port::total         4183                       # Cumulative packet size per connected master and slave (bytes)
system.iobus.pkt_size_system.ruby.l1_cntrl3.sequencer.mem-master-port::system.pc.south_bridge.io_apic.pio           44                       # Cumulative packet size per connected master and slave (bytes)
system.iobus.pkt_size_system.ruby.l1_cntrl3.sequencer.mem-master-port::system.pc.com_1.pio          122                       # Cumulative packet size per connected master and slave (bytes)
system.iobus.pkt_size_system.ruby.l1_cntrl3.sequencer.mem-master-port::system.ruby.l1_cntrl0.sequencer.pio-slave-port            4                       # Cumulative packet size per connected master and slave (bytes)
system.iobus.pkt_size_system.ruby.l1_cntrl3.sequencer.mem-master-port::system.ruby.l1_cntrl3.sequencer.pio-slave-port         4008                       # Cumulative packet size per connected master and slave (bytes)
system.iobus.pkt_size_system.ruby.l1_cntrl3.sequencer.mem-master-port::total         4178                       # Cumulative packet size per connected master and slave (bytes)
system.iobus.pkt_size::total                    16496                       # Cumulative packet size per connected master and slave (bytes)
system.iobus.reqLayer2.occupancy                85500                       # Layer occupancy (ticks)
system.iobus.reqLayer2.utilization                0.0                       # Layer utilization (%)
system.iobus.reqLayer8.occupancy                43995                       # Layer occupancy (ticks)
system.iobus.reqLayer8.utilization                0.0                       # Layer utilization (%)
system.iobus.reqLayer12.occupancy              281500                       # Layer occupancy (ticks)
system.iobus.reqLayer12.utilization               0.0                       # Layer utilization (%)
system.iobus.reqLayer17.occupancy             2503497                       # Layer occupancy (ticks)
system.iobus.reqLayer17.utilization               0.0                       # Layer utilization (%)
system.iobus.reqLayer18.occupancy             2494999                       # Layer occupancy (ticks)
system.iobus.reqLayer18.utilization               0.0                       # Layer utilization (%)
system.iobus.reqLayer19.occupancy             2762507                       # Layer occupancy (ticks)
system.iobus.reqLayer19.utilization               0.0                       # Layer utilization (%)
system.iobus.reqLayer20.occupancy             2515000                       # Layer occupancy (ticks)
system.iobus.reqLayer20.utilization               0.0                       # Layer utilization (%)
system.iobus.respLayer0.occupancy               11998                       # Layer occupancy (ticks)
system.iobus.respLayer0.utilization               0.0                       # Layer utilization (%)
system.iobus.respLayer2.occupancy             1549000                       # Layer occupancy (ticks)
system.iobus.respLayer2.utilization               0.0                       # Layer utilization (%)
system.iobus.respLayer4.occupancy             1533500                       # Layer occupancy (ticks)
system.iobus.respLayer4.utilization               0.0                       # Layer utilization (%)
system.iobus.respLayer6.occupancy             1703000                       # Layer occupancy (ticks)
system.iobus.respLayer6.utilization               0.0                       # Layer utilization (%)
system.iobus.respLayer8.occupancy             1732000                       # Layer occupancy (ticks)
system.iobus.respLayer8.utilization               0.0                       # Layer utilization (%)
system.pc.south_bridge.ide.disks.dma_read_full_pages            1                       # Number of full page size DMA reads (not PRD).
system.pc.south_bridge.ide.disks.dma_read_bytes         4096                       # Number of bytes transfered via DMA reads (not PRD).
system.pc.south_bridge.ide.disks.dma_read_txs            1                       # Number of DMA read transactions (not PRD).
system.pc.south_bridge.ide.disks.dma_write_full_pages           24                       # Number of full page size DMA writes.
system.pc.south_bridge.ide.disks.dma_write_bytes        98304                       # Number of bytes transfered via DMA writes.
system.pc.south_bridge.ide.disks.dma_write_txs           24                       # Number of DMA write transactions.
system.ruby.clk_domain.clock                      500                       # Clock period in ticks
system.ruby.outstanding_req_hist_seqr::bucket_size            1                      
system.ruby.outstanding_req_hist_seqr::max_bucket            9                      
system.ruby.outstanding_req_hist_seqr::samples   3806111210                      
system.ruby.outstanding_req_hist_seqr::mean     1.000000                      
system.ruby.outstanding_req_hist_seqr::gmean     1.000000                      
system.ruby.outstanding_req_hist_seqr::stdev     0.000226                      
system.ruby.outstanding_req_hist_seqr    |           0      0.00%      0.00% |  3806111015    100.00%    100.00% |         195      0.00%    100.00% |           0      0.00%    100.00% |           0      0.00%    100.00% |           0      0.00%    100.00% |           0      0.00%    100.00% |           0      0.00%    100.00% |           0      0.00%    100.00% |           0      0.00%    100.00%
system.ruby.outstanding_req_hist_seqr::total   3806111210                      
system.ruby.latency_hist_seqr::bucket_size          256                      
system.ruby.latency_hist_seqr::max_bucket         2559                      
system.ruby.latency_hist_seqr::samples     3806111210                      
system.ruby.latency_hist_seqr::mean          1.093494                      
system.ruby.latency_hist_seqr::gmean         1.004743                      
system.ruby.latency_hist_seqr::stdev         3.681450                      
system.ruby.latency_hist_seqr            |  3806059629    100.00%    100.00% |       27539      0.00%    100.00% |       23648      0.00%    100.00% |         387      0.00%    100.00% |           6      0.00%    100.00% |           1      0.00%    100.00% |           0      0.00%    100.00% |           0      0.00%    100.00% |           0      0.00%    100.00% |           0      0.00%    100.00%
system.ruby.latency_hist_seqr::total       3806111210                      
system.ruby.hit_latency_hist_seqr::bucket_size            1                      
system.ruby.hit_latency_hist_seqr::max_bucket            9                      
system.ruby.hit_latency_hist_seqr::samples   3801465430                      
system.ruby.hit_latency_hist_seqr::mean             1                      
system.ruby.hit_latency_hist_seqr::gmean            1                      
system.ruby.hit_latency_hist_seqr        |           0      0.00%      0.00% |  3801465430    100.00%    100.00% |           0      0.00%    100.00% |           0      0.00%    100.00% |           0      0.00%    100.00% |           0      0.00%    100.00% |           0      0.00%    100.00% |           0      0.00%    100.00% |           0      0.00%    100.00% |           0      0.00%    100.00%
system.ruby.hit_latency_hist_seqr::total   3801465430                      
system.ruby.miss_latency_hist_seqr::bucket_size          256                      
system.ruby.miss_latency_hist_seqr::max_bucket         2559                      
[...]
system.ruby.L1Cache_Controller.S.Inv::total        15649                      
system.ruby.L1Cache_Controller.O.Load    |         607      7.93%      7.93% |        2919     38.14%     46.07% |         455      5.94%     52.01% |        3673     47.99%    100.00%
system.ruby.L1Cache_Controller.O.Load::total         7654                      
system.ruby.L1Cache_Controller.O.Store   |          67     40.61%     40.61% |          23     13.94%     54.55% |          18     10.91%     65.45% |          57     34.55%    100.00%
system.ruby.L1Cache_Controller.O.Store::total          165                      
system.ruby.L1Cache_Controller.O.L1_Replacement |         110     15.54%     15.54% |         249     35.17%     50.71% |         205     28.95%     79.66% |         144     20.34%    100.00%
system.ruby.L1Cache_Controller.O.L1_Replacement::total          708                      
system.ruby.L1Cache_Controller.O.Fwd_GETX |        4015     21.09%     21.09% |        8849     46.49%     67.58% |         170      0.89%     68.47% |        6002     31.53%    100.00%
system.ruby.L1Cache_Controller.O.Fwd_GETX::total        19036                      
system.ruby.L1Cache_Controller.O.Fwd_GETS |        2042     10.76%     10.76% |        9990     52.62%     63.38% |         221      1.16%     64.54% |        6731     35.46%    100.00%
system.ruby.L1Cache_Controller.O.Fwd_GETS::total        18984                      
system.ruby.L1Cache_Controller.M.Load    |      106415      0.86%      0.86% |       79023      0.64%      1.51% |    12096030     98.22%     99.73% |       33645      0.27%    100.00%
system.ruby.L1Cache_Controller.M.Load::total     12315113                      
system.ruby.L1Cache_Controller.M.Store   |       12810     13.83%     13.83% |        2332      2.52%     16.34% |       76295     82.35%     98.70% |        1208      1.30%    100.00%
system.ruby.L1Cache_Controller.M.Store::total        92645                      
system.ruby.L1Cache_Controller.M.L1_Replacement |        6751      1.71%      1.71% |        2460      0.62%      2.33% |      383488     97.09%     99.43% |        2270      0.57%    100.00%
system.ruby.L1Cache_Controller.M.L1_Replacement::total       394969                      
system.ruby.L1Cache_Controller.M.Fwd_GETX |         358     31.54%     31.54% |         505     44.49%     76.04% |          61      5.37%     81.41% |         211     18.59%    100.00%
system.ruby.L1Cache_Controller.M.Fwd_GETX::total         1135                      
system.ruby.L1Cache_Controller.M.Fwd_GETS |        4194     21.19%     21.19% |        9137     46.16%     67.35% |         307      1.55%     68.90% |        6157     31.10%    100.00%
system.ruby.L1Cache_Controller.M.Fwd_GETS::total        19795                      
system.ruby.L1Cache_Controller.M_W.Load  |       19705      5.33%      5.33% |       10292      2.79%      8.12% |      331963     89.85%     97.97% |        7490      2.03%    100.00%
system.ruby.L1Cache_Controller.M_W.Load::total       369450                      
system.ruby.L1Cache_Controller.M_W.Store |        1576      2.88%      2.88% |        1264      2.31%      5.20% |       51404     94.06%     99.25% |         409      0.75%    100.00%
system.ruby.L1Cache_Controller.M_W.Store::total        54653                      
system.ruby.L1Cache_Controller.M_W.L1_Replacement |           3      4.92%      4.92% |           0      0.00%      4.92% |          58     95.08%    100.00% |           0      0.00%    100.00%
system.ruby.L1Cache_Controller.M_W.L1_Replacement::total           61                      
system.ruby.L1Cache_Controller.M_W.Fwd_GETX |          47     92.16%     92.16% |           0      0.00%     92.16% |           3      5.88%     98.04% |           1      1.96%    100.00%
system.ruby.L1Cache_Controller.M_W.Fwd_GETX::total           51                      
system.ruby.L1Cache_Controller.M_W.Fwd_GETS |         177     53.31%     53.31% |          26      7.83%     61.14% |          19      5.72%     66.87% |         110     33.13%    100.00%
system.ruby.L1Cache_Controller.M_W.Fwd_GETS::total          332                      
system.ruby.L1Cache_Controller.M_W.Use_Timeout |       24020      4.72%      4.72% |       14435      2.84%      7.56% |      460222     90.50%     98.06% |        9861      1.94%    100.00%
system.ruby.L1Cache_Controller.M_W.Use_Timeout::total       508538                      
system.ruby.L1Cache_Controller.MM.Load   |     1516376      0.80%      0.80% |      876151      0.46%      1.26% |   187025569     98.40%     99.65% |      655763      0.35%    100.00%
system.ruby.L1Cache_Controller.MM.Load::total    190073859                      
system.ruby.L1Cache_Controller.MM.Store  |     1528079      2.75%      2.75% |      926707      1.67%      4.42% |    52364614     94.31%     98.73% |      704348      1.27%    100.00%
system.ruby.L1Cache_Controller.MM.Store::total     55523748                      
system.ruby.L1Cache_Controller.MM.L1_Replacement |       43109      3.51%      3.51% |       16484      1.34%      4.85% |     1161314     94.45%     99.30% |        8645      0.70%    100.00%
system.ruby.L1Cache_Controller.MM.L1_Replacement::total      1229552                      
system.ruby.L1Cache_Controller.MM.Fwd_GETX |        1197     27.60%     27.60% |         917     21.14%     48.74% |        1216     28.04%     76.78% |        1007     23.22%    100.00%
system.ruby.L1Cache_Controller.MM.Fwd_GETX::total         4337                      
system.ruby.L1Cache_Controller.MM.Fwd_GETS |        8711     46.95%     46.95% |        3148     16.97%     63.92% |        3472     18.71%     82.63% |        3223     17.37%    100.00%
system.ruby.L1Cache_Controller.MM.Fwd_GETS::total        18554                      
system.ruby.L1Cache_Controller.MM.Fwd_DMA |           4     33.33%     33.33% |           0      0.00%     33.33% |           8     66.67%    100.00% |           0      0.00%    100.00%
system.ruby.L1Cache_Controller.MM.Fwd_DMA::total           12                      
system.ruby.L1Cache_Controller.MM_W.Load |        5789      2.41%      2.41% |        1341      0.56%      2.96% |      232212     96.56%     99.53% |        1138      0.47%    100.00%
system.ruby.L1Cache_Controller.MM_W.Load::total       240480                      
system.ruby.L1Cache_Controller.MM_W.Store |      125853      6.20%      6.20% |       73290      3.61%      9.81% |     1798442     88.57%     98.38% |       32843      1.62%    100.00%
system.ruby.L1Cache_Controller.MM_W.Store::total      2030428                      
system.ruby.L1Cache_Controller.MM_W.L1_Replacement |           0      0.00%      0.00% |          10     22.73%     22.73% |          34     77.27%    100.00% |           0      0.00%    100.00%
system.ruby.L1Cache_Controller.MM_W.L1_Replacement::total           44                      
system.ruby.L1Cache_Controller.MM_W.Fwd_GETX |          15     39.47%     39.47% |          12     31.58%     71.05% |           5     13.16%     84.21% |           6     15.79%    100.00%
system.ruby.L1Cache_Controller.MM_W.Fwd_GETX::total           38                      
system.ruby.L1Cache_Controller.MM_W.Fwd_GETS |         394     21.97%     21.97% |         503     28.05%     50.03% |         337     18.80%     68.82% |         559     31.18%    100.00%
system.ruby.L1Cache_Controller.MM_W.Fwd_GETS::total         1793                      
system.ruby.L1Cache_Controller.MM_W.Use_Timeout |       40364      3.48%      3.48% |       18381      1.58%      5.06% |     1089548     93.93%     98.99% |       11726      1.01%    100.00%
system.ruby.L1Cache_Controller.MM_W.Use_Timeout::total      1160019                      
system.ruby.L1Cache_Controller.IM.Ack    |        9753     46.25%     46.25% |        3461     16.41%     62.67% |        3287     15.59%     78.26% |        4585     21.74%    100.00%
system.ruby.L1Cache_Controller.IM.Ack::total        21086                      
system.ruby.L1Cache_Controller.IM.Exclusive_Data |       26472      4.37%      4.37% |       14638      2.42%      6.78% |      556494     91.84%     98.62% |        8342      1.38%    100.00%
system.ruby.L1Cache_Controller.IM.Exclusive_Data::total       605946                      
system.ruby.L1Cache_Controller.SM.Inv    |           1    100.00%    100.00% |           0      0.00%    100.00% |           0      0.00%    100.00% |           0      0.00%    100.00%
system.ruby.L1Cache_Controller.SM.Inv::total            1                      
system.ruby.L1Cache_Controller.SM.Ack    |        9686     57.04%     57.04% |        1187      6.99%     64.03% |        3130     18.43%     82.46% |        2979     17.54%    100.00%
system.ruby.L1Cache_Controller.SM.Ack::total        16982                      
system.ruby.L1Cache_Controller.SM.Exclusive_Data |       12249      2.45%      2.45% |        2456      0.49%      2.95% |      481632     96.47%     99.42% |        2918      0.58%    100.00%
system.ruby.L1Cache_Controller.SM.Exclusive_Data::total       499255                      
system.ruby.L1Cache_Controller.OM.Own_GETX |          67     40.61%     40.61% |          23     13.94%     54.55% |          18     10.91%     65.45% |          57     34.55%    100.00%
system.ruby.L1Cache_Controller.OM.Own_GETX::total          165                      
system.ruby.L1Cache_Controller.OM.Ack    |         879     38.98%     38.98% |         255     11.31%     50.29% |         893     39.60%     89.89% |         228     10.11%    100.00%
system.ruby.L1Cache_Controller.OM.Ack::total         2255                      
system.ruby.L1Cache_Controller.OM.All_acks |       38788      3.51%      3.51% |       17117      1.55%      5.06% |     1038144     93.92%     98.98% |       11317      1.02%    100.00%
system.ruby.L1Cache_Controller.OM.All_acks::total      1105366                      
system.ruby.L1Cache_Controller.IS.Data   |      137725      4.35%      4.35% |       69636      2.20%      6.55% |     2895077     91.52%     98.07% |       61020      1.93%    100.00%
system.ruby.L1Cache_Controller.IS.Data::total      3163458                      
system.ruby.L1Cache_Controller.IS.Exclusive_Data |       25596      4.54%      4.54% |       15699      2.79%      7.33% |      511627     90.84%     98.18% |       10270      1.82%    100.00%
system.ruby.L1Cache_Controller.IS.Exclusive_Data::total       563192                      
system.ruby.L1Cache_Controller.SI.Load   |           5      8.20%      8.20% |           0      0.00%      8.20% |          54     88.52%     96.72% |           2      3.28%    100.00%
system.ruby.L1Cache_Controller.SI.Load::total           61                      
system.ruby.L1Cache_Controller.SI.Ifetch |           8    100.00%    100.00% |           0      0.00%    100.00% |           0      0.00%    100.00% |           0      0.00%    100.00%
system.ruby.L1Cache_Controller.SI.Ifetch::total            8                      
system.ruby.L1Cache_Controller.SI.Writeback_Ack |       95245      5.90%      5.90% |       55781      3.45%      9.35% |     1417946     87.79%     97.14% |       46254      2.86%    100.00%
system.ruby.L1Cache_Controller.SI.Writeback_Ack::total      1615226                      
system.ruby.L1Cache_Controller.SI.Writeback_Ack_Data |       27273      2.64%      2.64% |        7919      0.77%      3.41% |      992295     96.07%     99.48% |        5413      0.52%    100.00%
system.ruby.L1Cache_Controller.SI.Writeback_Ack_Data::total      1032900                      
system.ruby.L1Cache_Controller.OI.Writeback_Ack_Data |         110     15.54%     15.54% |         249     35.17%     50.71% |         205     28.95%     79.66% |         144     20.34%    100.00%
system.ruby.L1Cache_Controller.OI.Writeback_Ack_Data::total          708                      
system.ruby.L1Cache_Controller.MI.Load   |           5      9.43%      9.43% |           0      0.00%      9.43% |          48     90.57%    100.00% |           0      0.00%    100.00%
system.ruby.L1Cache_Controller.MI.Load::total           53                      
system.ruby.L1Cache_Controller.MI.Writeback_Ack_Data |       49860      3.07%      3.07% |       18944      1.17%      4.24% |     1544801     95.09%     99.33% |       10915      0.67%    100.00%
system.ruby.L1Cache_Controller.MI.Writeback_Ack_Data::total      1624520                      
system.ruby.L2Cache_Controller.L1_GETS        3727151      0.00%      0.00%
system.ruby.L2Cache_Controller.L1_GETX        1105385      0.00%      0.00%
system.ruby.L2Cache_Controller.L1_PUTO            708      0.00%      0.00%
system.ruby.L2Cache_Controller.L1_PUTX        1624521      0.00%      0.00%
system.ruby.L2Cache_Controller.L1_PUTS_only      2446360      0.00%      0.00%
system.ruby.L2Cache_Controller.L1_PUTS         201770      0.00%      0.00%
system.ruby.L2Cache_Controller.Fwd_DMA             20      0.00%      0.00%
system.ruby.L2Cache_Controller.All_Acks        981961      0.00%      0.00%
system.ruby.L2Cache_Controller.Data           2423453      0.00%      0.00%
system.ruby.L2Cache_Controller.L1_WBCLEANDATA      1032900      0.00%      0.00%
system.ruby.L2Cache_Controller.L1_WBDIRTYDATA      1625228      0.00%      0.00%
system.ruby.L2Cache_Controller.Writeback_Ack       979221      0.00%      0.00%
system.ruby.L2Cache_Controller.Unblock        4778684      0.00%      0.00%
system.ruby.L2Cache_Controller.Exclusive_Unblock      1668557      0.00%      0.00%
system.ruby.L2Cache_Controller.DmaAck              12      0.00%      0.00%
system.ruby.L2Cache_Controller.L2_Replacement      1932485      0.00%      0.00%
system.ruby.L2Cache_Controller.NP.L1_GETS      1441492      0.00%      0.00%
system.ruby.L2Cache_Controller.NP.L1_GETX       481733      0.00%      0.00%
system.ruby.L2Cache_Controller.ILS.L1_GETS         9365      0.00%      0.00%
system.ruby.L2Cache_Controller.ILS.L1_GETX       421431      0.00%      0.00%
system.ruby.L2Cache_Controller.ILS.L1_PUTS_only      1021113      0.00%      0.00%
system.ruby.L2Cache_Controller.ILS.L1_PUTS        11787      0.00%      0.00%
system.ruby.L2Cache_Controller.ILX.L1_GETS        38349      0.00%      0.00%
system.ruby.L2Cache_Controller.ILX.L1_GETX         5472      0.00%      0.00%
system.ruby.L2Cache_Controller.ILX.L1_PUTX      1624521      0.00%      0.00%
system.ruby.L2Cache_Controller.ILX.Fwd_DMA           12      0.00%      0.00%
system.ruby.L2Cache_Controller.ILOX.L1_GETS         8545      0.00%      0.00%
system.ruby.L2Cache_Controller.ILOX.L1_GETX         2042      0.00%      0.00%
system.ruby.L2Cache_Controller.ILOX.L1_PUTO          300      0.00%      0.00%
system.ruby.L2Cache_Controller.ILOSX.L1_GETS        10439      0.00%      0.00%
system.ruby.L2Cache_Controller.ILOSX.L1_GETX        17159      0.00%      0.00%
system.ruby.L2Cache_Controller.ILOSX.L1_PUTO          408      0.00%      0.00%
system.ruby.L2Cache_Controller.ILOSX.L1_PUTS_only        10872      0.00%      0.00%
system.ruby.L2Cache_Controller.ILOSX.L1_PUTS         2941      0.00%      0.00%
system.ruby.L2Cache_Controller.S.L1_GETS      1483745      0.00%      0.00%
system.ruby.L2Cache_Controller.S.L1_GETX        10846      0.00%      0.00%
system.ruby.L2Cache_Controller.S.L2_Replacement       939982      0.00%      0.00%
system.ruby.L2Cache_Controller.OLSX.L1_GETS         6789      0.00%      0.00%
system.ruby.L2Cache_Controller.OLSX.L1_GETX          187      0.00%      0.00%
system.ruby.L2Cache_Controller.OLSX.L1_PUTS_only          153      0.00%      0.00%
system.ruby.L2Cache_Controller.OLSX.L1_PUTS         6678      0.00%      0.00%
system.ruby.L2Cache_Controller.OLSX.L2_Replacement           78      0.00%      0.00%
system.ruby.L2Cache_Controller.SLS.L1_GETS       183288      0.00%      0.00%
system.ruby.L2Cache_Controller.SLS.L1_GETX        67951      0.00%      0.00%
system.ruby.L2Cache_Controller.SLS.L1_PUTS_only      1414222      0.00%      0.00%
system.ruby.L2Cache_Controller.SLS.L1_PUTS       180360      0.00%      0.00%
system.ruby.L2Cache_Controller.SLS.L2_Replacement        13282      0.00%      0.00%
system.ruby.L2Cache_Controller.M.L1_GETS       544638      0.00%      0.00%
system.ruby.L2Cache_Controller.M.L1_GETX        98545      0.00%      0.00%
system.ruby.L2Cache_Controller.M.Fwd_DMA            8      0.00%      0.00%
system.ruby.L2Cache_Controller.M.L2_Replacement       979143      0.00%      0.00%
system.ruby.L2Cache_Controller.ILOXW.L1_WBDIRTYDATA          300      0.00%      0.00%
system.ruby.L2Cache_Controller.ILOXW.Unblock        10872      0.00%      0.00%
system.ruby.L2Cache_Controller.ILOSXW.L1_WBDIRTYDATA          408      0.00%      0.00%
system.ruby.L2Cache_Controller.ILOSXW.Unblock         2941      0.00%      0.00%
system.ruby.L2Cache_Controller.SLSW.L1_GETS            3      0.00%      0.00%
system.ruby.L2Cache_Controller.SLSW.L1_PUTS            2      0.00%      0.00%
system.ruby.L2Cache_Controller.SLSW.Unblock       180360      0.00%      0.00%
system.ruby.L2Cache_Controller.ILSW.L1_WBCLEANDATA        11787      0.00%      0.00%
system.ruby.L2Cache_Controller.IW.L1_WBCLEANDATA      1021113      0.00%      0.00%
system.ruby.L2Cache_Controller.SW.Unblock      1414222      0.00%      0.00%
system.ruby.L2Cache_Controller.OXW.Unblock          153      0.00%      0.00%
system.ruby.L2Cache_Controller.OLSXW.Unblock         6678      0.00%      0.00%
system.ruby.L2Cache_Controller.ILXW.L1_WBDIRTYDATA      1624520      0.00%      0.00%
system.ruby.L2Cache_Controller.IFLS.L1_GETS            6      0.00%      0.00%
system.ruby.L2Cache_Controller.IFLS.Unblock         9365      0.00%      0.00%
system.ruby.L2Cache_Controller.IFLOX.Unblock         8545      0.00%      0.00%
system.ruby.L2Cache_Controller.IFLOX.Exclusive_Unblock          187      0.00%      0.00%
system.ruby.L2Cache_Controller.IFLOXX.L1_GETS          197      0.00%      0.00%
system.ruby.L2Cache_Controller.IFLOXX.L1_GETX           15      0.00%      0.00%
system.ruby.L2Cache_Controller.IFLOXX.Unblock        19795      0.00%      0.00%
system.ruby.L2Cache_Controller.IFLOXX.Exclusive_Unblock        26068      0.00%      0.00%
system.ruby.L2Cache_Controller.IFLOSX.Unblock        10439      0.00%      0.00%
system.ruby.L2Cache_Controller.IFLXO.L1_GETS           93      0.00%      0.00%
system.ruby.L2Cache_Controller.IFLXO.L1_GETX            4      0.00%      0.00%
system.ruby.L2Cache_Controller.IFLXO.Exclusive_Unblock        17159      0.00%      0.00%
system.ruby.L2Cache_Controller.IGS.L1_GETS          198      0.00%      0.00%
system.ruby.L2Cache_Controller.IGS.Data       1441492      0.00%      0.00%
system.ruby.L2Cache_Controller.IGS.Unblock      1441492      0.00%      0.00%
system.ruby.L2Cache_Controller.IGM.Data        492579      0.00%      0.00%
system.ruby.L2Cache_Controller.IGMLS.Data       489382      0.00%      0.00%
system.ruby.L2Cache_Controller.IGMO.All_Acks       981961      0.00%      0.00%
system.ruby.L2Cache_Controller.IGMO.Exclusive_Unblock       981961      0.00%      0.00%
system.ruby.L2Cache_Controller.MM.Exclusive_Unblock        98545      0.00%      0.00%
system.ruby.L2Cache_Controller.SS.L1_GETS            4      0.00%      0.00%
system.ruby.L2Cache_Controller.SS.Unblock      1483745      0.00%      0.00%
system.ruby.L2Cache_Controller.OO.Exclusive_Unblock       544637      0.00%      0.00%
system.ruby.L2Cache_Controller.OLSXS.Unblock         6789      0.00%      0.00%
system.ruby.L2Cache_Controller.SLSS.L1_PUTS            2      0.00%      0.00%
system.ruby.L2Cache_Controller.SLSS.Unblock       183288      0.00%      0.00%
system.ruby.L2Cache_Controller.MI.Writeback_Ack       979143      0.00%      0.00%
system.ruby.L2Cache_Controller.OLSI.Writeback_Ack           78      0.00%      0.00%
system.ruby.L2Cache_Controller.ILXD.DmaAck           12      0.00%      0.00%

---------- End Simulation Statistics   ----------
