
---------- Begin Simulation Statistics ----------
sim_seconds                                  0.849807                       # Number of seconds simulated
sim_ticks                                849807247000                       # Number of ticks simulated
final_tick                               54376983686501                       # Number of ticks from beginning of simulation (restored from checkpoints and never reset)
sim_freq                                 1000000000000                       # Frequency of simulated ticks
host_inst_rate                                 107821                       # Simulator instruction rate (inst/s)
host_op_rate                                   178565                       # Simulator op (including micro ops) rate (op/s)
host_tick_rate                              327402452                       # Simulator tick rate (ticks/s)
host_mem_usage                                2181448                       # Number of bytes of host memory used
host_seconds                                  2595.60                       # Real time elapsed on the host
sim_insts                                   279859456                       # Number of instructions simulated
sim_ops                                     463485036                       # Number of ops (including micro ops) simulated
system.voltage_domain.voltage                       1                       # Voltage in Volts
system.clk_domain.clock                          1000                       # Clock period in ticks
system.mem_ctrls.bytes_read::ruby.dir_cntrl0    282363136                       # Number of bytes read from this memory
system.mem_ctrls.bytes_read::total          282363136                       # Number of bytes read from this memory
system.mem_ctrls.bytes_written::ruby.dir_cntrl0    141020800                       # Number of bytes written to this memory
system.mem_ctrls.bytes_written::total       141020800                       # Number of bytes written to this memory
system.mem_ctrls.num_reads::ruby.dir_cntrl0      4411924                       # Number of read requests responded to by this memory
system.mem_ctrls.num_reads::total             4411924                       # Number of read requests responded to by this memory
system.mem_ctrls.num_writes::ruby.dir_cntrl0      2203450                       # Number of write requests responded to by this memory
system.mem_ctrls.num_writes::total            2203450                       # Number of write requests responded to by this memory
system.mem_ctrls.bw_read::ruby.dir_cntrl0    332267272                       # Total read bandwidth from this memory (bytes/s)
system.mem_ctrls.bw_read::total             332267272                       # Total read bandwidth from this memory (bytes/s)
system.mem_ctrls.bw_write::ruby.dir_cntrl0    165944454                       # Write bandwidth from this memory (bytes/s)
system.mem_ctrls.bw_write::total            165944454                       # Write bandwidth from this memory (bytes/s)
system.mem_ctrls.bw_total::ruby.dir_cntrl0    498211727                       # Total bandwidth to/from this memory (bytes/s)
system.mem_ctrls.bw_total::total            498211727                       # Total bandwidth to/from this memory (bytes/s)
system.mem_ctrls.readReqs                     4411924                       # Number of read requests accepted
system.mem_ctrls.writeReqs                    2203450                       # Number of write requests accepted
system.mem_ctrls.readBursts                   4411924                       # Number of DRAM read bursts, including those serviced by the write queue
system.mem_ctrls.writeBursts                  2203450                       # Number of DRAM write bursts, including those merged in the write queue
system.mem_ctrls.bytesReadDRAM              282285312                       # Total number of bytes read from DRAM
system.mem_ctrls.bytesReadWrQ                   77824                       # Total number of bytes read from write queue
system.mem_ctrls.bytesWritten               141021376                       # Total number of bytes written to DRAM
system.mem_ctrls.bytesReadSys               282363136                       # Total read bytes from the system interface side
system.mem_ctrls.bytesWrittenSys            141020800                       # Total written bytes from the system interface side
system.mem_ctrls.servicedByWrQ                   1216                       # Number of DRAM read bursts serviced by the write queue
system.mem_ctrls.mergedWrBursts                     3                       # Number of DRAM write bursts merged with an existing one
system.mem_ctrls.neitherReadNorWriteReqs            0                       # Number of requests that are neither read nor write
system.mem_ctrls.perBankRdBursts::0            261357                       # Per bank write bursts
system.mem_ctrls.perBankRdBursts::1            256868                       # Per bank write bursts
system.mem_ctrls.perBankRdBursts::2            264249                       # Per bank write bursts
system.mem_ctrls.perBankRdBursts::3            264697                       # Per bank write bursts
system.mem_ctrls.perBankRdBursts::4            288068                       # Per bank write bursts
system.mem_ctrls.perBankRdBursts::5            294541                       # Per bank write bursts
system.mem_ctrls.perBankRdBursts::6            269101                       # Per bank write bursts
system.mem_ctrls.perBankRdBursts::7            267552                       # Per bank write bursts
system.mem_ctrls.perBankRdBursts::8            278629                       # Per bank write bursts
system.mem_ctrls.perBankRdBursts::9            272812                       # Per bank write bursts
system.mem_ctrls.perBankRdBursts::10           277677                       # Per bank write bursts
system.mem_ctrls.perBankRdBursts::11           279766                       # Per bank write bursts
system.mem_ctrls.perBankRdBursts::12           276496                       # Per bank write bursts
system.mem_ctrls.perBankRdBursts::13           281643                       # Per bank write bursts
system.mem_ctrls.perBankRdBursts::14           285091                       # Per bank write bursts
system.mem_ctrls.perBankRdBursts::15           292161                       # Per bank write bursts
system.mem_ctrls.perBankWrBursts::0            134456                       # Per bank write bursts
system.mem_ctrls.perBankWrBursts::1            132917                       # Per bank write bursts
system.mem_ctrls.perBankWrBursts::2            136851                       # Per bank write bursts
system.mem_ctrls.perBankWrBursts::3            136103                       # Per bank write bursts
system.mem_ctrls.perBankWrBursts::4            138542                       # Per bank write bursts
system.mem_ctrls.perBankWrBursts::5            140211                       # Per bank write bursts
system.mem_ctrls.perBankWrBursts::6            137873                       # Per bank write bursts
system.mem_ctrls.perBankWrBursts::7            136330                       # Per bank write bursts
system.mem_ctrls.perBankWrBursts::8            138925                       # Per bank write bursts
system.mem_ctrls.perBankWrBursts::9            136603                       # Per bank write bursts
system.mem_ctrls.perBankWrBursts::10           135227                       # Per bank write bursts
system.mem_ctrls.perBankWrBursts::11           137611                       # Per bank write bursts
system.mem_ctrls.perBankWrBursts::12           135975                       # Per bank write bursts
system.mem_ctrls.perBankWrBursts::13           139878                       # Per bank write bursts
system.mem_ctrls.perBankWrBursts::14           140242                       # Per bank write bursts
system.mem_ctrls.perBankWrBursts::15           145715                       # Per bank write bursts
system.mem_ctrls.numRdRetry                         0                       # Number of times read queue was full causing retry
system.mem_ctrls.numWrRetry                         0                       # Number of times write queue was full causing retry
system.mem_ctrls.totGap                  849807225500                       # Total gap between requests
system.mem_ctrls.readPktSize::0                     0                       # Read request sizes (log2)
system.mem_ctrls.readPktSize::1                     0                       # Read request sizes (log2)
system.mem_ctrls.readPktSize::2                     0                       # Read request sizes (log2)
system.mem_ctrls.readPktSize::3                     0                       # Read request sizes (log2)
system.mem_ctrls.readPktSize::4                     0                       # Read request sizes (log2)
system.mem_ctrls.readPktSize::5                     0                       # Read request sizes (log2)
system.mem_ctrls.readPktSize::6               4411924                       # Read request sizes (log2)
system.mem_ctrls.writePktSize::0                    0                       # Write request sizes (log2)
system.mem_ctrls.writePktSize::1                    0                       # Write request sizes (log2)
system.mem_ctrls.writePktSize::2                    0                       # Write request sizes (log2)
system.mem_ctrls.writePktSize::3                    0                       # Write request sizes (log2)
system.mem_ctrls.writePktSize::4                    0                       # Write request sizes (log2)
system.mem_ctrls.writePktSize::5                    0                       # Write request sizes (log2)
system.mem_ctrls.writePktSize::6              2203450                       # Write request sizes (log2)
system.mem_ctrls.rdQLenPdf::0                 4385941                       # What read queue length does an incoming req see
system.mem_ctrls.rdQLenPdf::1                   24624                       # What read queue length does an incoming req see
system.mem_ctrls.rdQLenPdf::2                     143                       # What read queue length does an incoming req see
system.mem_ctrls.rdQLenPdf::3                       0                       # What read queue length does an incoming req see
system.mem_ctrls.rdQLenPdf::4                       0                       # What read queue length does an incoming req see
system.mem_ctrls.rdQLenPdf::5                       0                       # What read queue length does an incoming req see
system.mem_ctrls.rdQLenPdf::6                       0                       # What read queue length does an incoming req see
system.mem_ctrls.rdQLenPdf::7                       0                       # What read queue length does an incoming req see
system.mem_ctrls.rdQLenPdf::8                       0                       # What read queue length does an incoming req see
system.mem_ctrls.rdQLenPdf::9                       0                       # What read queue length does an incoming req see
system.mem_ctrls.rdQLenPdf::10                      0                       # What read queue length does an incoming req see
system.mem_ctrls.rdQLenPdf::11                      0                       # What read queue length does an incoming req see
system.mem_ctrls.rdQLenPdf::12                      0                       # What read queue length does an incoming req see
system.mem_ctrls.rdQLenPdf::13                      0                       # What read queue length does an incoming req see
system.mem_ctrls.rdQLenPdf::14                      0                       # What read queue length does an incoming req see
system.mem_ctrls.rdQLenPdf::15                      0                       # What read queue length does an incoming req see
system.mem_ctrls.rdQLenPdf::16                      0                       # What read queue length does an incoming req see
system.mem_ctrls.rdQLenPdf::17                      0                       # What read queue length does an incoming req see
system.mem_ctrls.rdQLenPdf::18                      0                       # What read queue length does an incoming req see
system.mem_ctrls.rdQLenPdf::19                      0                       # What read queue length does an incoming req see
system.mem_ctrls.rdQLenPdf::20                      0                       # What read queue length does an incoming req see
system.mem_ctrls.rdQLenPdf::21                      0                       # What read queue length does an incoming req see
system.mem_ctrls.rdQLenPdf::22                      0                       # What read queue length does an incoming req see
system.mem_ctrls.rdQLenPdf::23                      0                       # What read queue length does an incoming req see
system.mem_ctrls.rdQLenPdf::24                      0                       # What read queue length does an incoming req see
system.mem_ctrls.rdQLenPdf::25                      0                       # What read queue length does an incoming req see
system.mem_ctrls.rdQLenPdf::26                      0                       # What read queue length does an incoming req see
system.mem_ctrls.rdQLenPdf::27                      0                       # What read queue length does an incoming req see
system.mem_ctrls.rdQLenPdf::28                      0                       # What read queue length does an incoming req see
system.mem_ctrls.rdQLenPdf::29                      0                       # What read queue length does an incoming req see
system.mem_ctrls.rdQLenPdf::30                      0                       # What read queue length does an incoming req see
system.mem_ctrls.rdQLenPdf::31                      0                       # What read queue length does an incoming req see
system.mem_ctrls.wrQLenPdf::0                       0                       # What write queue length does an incoming req see
system.mem_ctrls.wrQLenPdf::1                       0                       # What write queue length does an incoming req see
system.mem_ctrls.wrQLenPdf::2                       0                       # What write queue length does an incoming req see
system.mem_ctrls.wrQLenPdf::3                       0                       # What write queue length does an incoming req see
system.mem_ctrls.wrQLenPdf::4                       0                       # What write queue length does an incoming req see
system.mem_ctrls.wrQLenPdf::5                       0                       # What write queue length does an incoming req see
system.mem_ctrls.wrQLenPdf::6                       0                       # What write queue length does an incoming req see
system.mem_ctrls.wrQLenPdf::7                       0                       # What write queue length does an incoming req see
system.mem_ctrls.wrQLenPdf::8                       0                       # What write queue length does an incoming req see
system.mem_ctrls.wrQLenPdf::9                       0                       # What write queue length does an incoming req see
system.mem_ctrls.wrQLenPdf::10                      0                       # What write queue length does an incoming req see
system.mem_ctrls.wrQLenPdf::11                      0                       # What write queue length does an incoming req see
system.mem_ctrls.wrQLenPdf::12                      0                       # What write queue length does an incoming req see
system.mem_ctrls.wrQLenPdf::13                      0                       # What write queue length does an incoming req see
system.mem_ctrls.wrQLenPdf::14                      0                       # What write queue length does an incoming req see
system.mem_ctrls.wrQLenPdf::15                  66568                       # What write queue length does an incoming req see
system.mem_ctrls.wrQLenPdf::16                  72393                       # What write queue length does an incoming req see
system.mem_ctrls.wrQLenPdf::17                 116258                       # What write queue length does an incoming req see
system.mem_ctrls.wrQLenPdf::18                 130864                       # What write queue length does an incoming req see
system.mem_ctrls.wrQLenPdf::19                 131502                       # What write queue length does an incoming req see
system.mem_ctrls.wrQLenPdf::20                 131140                       # What write queue length does an incoming req see
system.mem_ctrls.wrQLenPdf::21                 130006                       # What write queue length does an incoming req see
system.mem_ctrls.wrQLenPdf::22                 129176                       # What write queue length does an incoming req see
system.mem_ctrls.wrQLenPdf::23                 128855                       # What write queue length does an incoming req see
system.mem_ctrls.wrQLenPdf::24                 128866                       # What write queue length does an incoming req see
system.mem_ctrls.wrQLenPdf::25                 128910                       # What write queue length does an incoming req see
system.mem_ctrls.wrQLenPdf::26                 129212                       # What write queue length does an incoming req see
system.mem_ctrls.wrQLenPdf::27                 129158                       # What write queue length does an incoming req see
system.mem_ctrls.wrQLenPdf::28                 129450                       # What write queue length does an incoming req see
system.mem_ctrls.wrQLenPdf::29                 130958                       # What write queue length does an incoming req see
system.mem_ctrls.wrQLenPdf::30                 132341                       # What write queue length does an incoming req see
system.mem_ctrls.wrQLenPdf::31                 128751                       # What write queue length does an incoming req see
system.mem_ctrls.wrQLenPdf::32                 128537                       # What write queue length does an incoming req see
system.mem_ctrls.wrQLenPdf::33                    391                       # What write queue length does an incoming req see
system.mem_ctrls.wrQLenPdf::34                     49                       # What write queue length does an incoming req see
system.mem_ctrls.wrQLenPdf::35                     15                       # What write queue length does an incoming req see
system.mem_ctrls.wrQLenPdf::36                      7                       # What write queue length does an incoming req see
system.mem_ctrls.wrQLenPdf::37                      6                       # What write queue length does an incoming req see
system.mem_ctrls.wrQLenPdf::38                      7                       # What write queue length does an incoming req see
system.mem_ctrls.wrQLenPdf::39                      5                       # What write queue length does an incoming req see
system.mem_ctrls.wrQLenPdf::40                      4                       # What write queue length does an incoming req see
system.mem_ctrls.wrQLenPdf::41                      4                       # What write queue length does an incoming req see
system.mem_ctrls.wrQLenPdf::42                      3                       # What write queue length does an incoming req see
system.mem_ctrls.wrQLenPdf::43                      2                       # What write queue length does an incoming req see
system.mem_ctrls.wrQLenPdf::44                      1                       # What write queue length does an incoming req see
system.mem_ctrls.wrQLenPdf::45                      2                       # What write queue length does an incoming req see
system.mem_ctrls.wrQLenPdf::46                      1                       # What write queue length does an incoming req see
system.mem_ctrls.wrQLenPdf::47                      2                       # What write queue length does an incoming req see
system.mem_ctrls.wrQLenPdf::48                      1                       # What write queue length does an incoming req see
system.mem_ctrls.wrQLenPdf::49                      1                       # What write queue length does an incoming req see
system.mem_ctrls.wrQLenPdf::50                      1                       # What write queue length does an incoming req see
system.mem_ctrls.wrQLenPdf::51                      0                       # What write queue length does an incoming req see
system.mem_ctrls.wrQLenPdf::52                      0                       # What write queue length does an incoming req see
system.mem_ctrls.wrQLenPdf::53                      0                       # What write queue length does an incoming req see
system.mem_ctrls.wrQLenPdf::54                      0                       # What write queue length does an incoming req see
system.mem_ctrls.wrQLenPdf::55                      0                       # What write queue length does an incoming req see
system.mem_ctrls.wrQLenPdf::56                      0                       # What write queue length does an incoming req see
system.mem_ctrls.wrQLenPdf::57                      0                       # What write queue length does an incoming req see
system.mem_ctrls.wrQLenPdf::58                      0                       # What write queue length does an incoming req see
system.mem_ctrls.wrQLenPdf::59                      0                       # What write queue length does an incoming req see
system.mem_ctrls.wrQLenPdf::60                      0                       # What write queue length does an incoming req see
system.mem_ctrls.wrQLenPdf::61                      0                       # What write queue length does an incoming req see
system.mem_ctrls.wrQLenPdf::62                      0                       # What write queue length does an incoming req see
system.mem_ctrls.wrQLenPdf::63                      0                       # What write queue length does an incoming req see
system.mem_ctrls.bytesPerActivate::samples      5879944                       # Bytes accessed per row activation
system.mem_ctrls.bytesPerActivate::mean     71.991586                       # Bytes accessed per row activation
system.mem_ctrls.bytesPerActivate::gmean    68.755331                       # Bytes accessed per row activation
system.mem_ctrls.bytesPerActivate::stdev    39.474762                       # Bytes accessed per row activation
system.mem_ctrls.bytesPerActivate::0-127      5348197     90.96%     90.96% # Bytes accessed per row activation
system.mem_ctrls.bytesPerActivate::128-255       499641      8.50%     99.45% # Bytes accessed per row activation
system.mem_ctrls.bytesPerActivate::256-383        17465      0.30%     99.75% # Bytes accessed per row activation
system.mem_ctrls.bytesPerActivate::384-511         7074      0.12%     99.87% # Bytes accessed per row activation
system.mem_ctrls.bytesPerActivate::512-639         1226      0.02%     99.89% # Bytes accessed per row activation
system.mem_ctrls.bytesPerActivate::640-767          835      0.01%     99.91% # Bytes accessed per row activation
system.mem_ctrls.bytesPerActivate::768-895          653      0.01%     99.92% # Bytes accessed per row activation
system.mem_ctrls.bytesPerActivate::896-1023          509      0.01%     99.93% # Bytes accessed per row activation
system.mem_ctrls.bytesPerActivate::1024-1151         4344      0.07%    100.00% # Bytes accessed per row activation
system.mem_ctrls.bytesPerActivate::total      5879944                       # Bytes accessed per row activation
system.mem_ctrls.rdPerTurnAround::samples       128491                       # Reads before turning the bus around for writes
system.mem_ctrls.rdPerTurnAround::mean      34.327416                       # Reads before turning the bus around for writes
system.mem_ctrls.rdPerTurnAround::stdev     10.867522                       # Reads before turning the bus around for writes
system.mem_ctrls.rdPerTurnAround::0-15           1307      1.02%      1.02% # Reads before turning the bus around for writes
system.mem_ctrls.rdPerTurnAround::16-31         50432     39.25%     40.27% # Reads before turning the bus around for writes
system.mem_ctrls.rdPerTurnAround::32-47         68921     53.64%     93.91% # Reads before turning the bus around for writes
system.mem_ctrls.rdPerTurnAround::48-63          6887      5.36%     99.27% # Reads before turning the bus around for writes
system.mem_ctrls.rdPerTurnAround::64-79           265      0.21%     99.47% # Reads before turning the bus around for writes
system.mem_ctrls.rdPerTurnAround::80-95           145      0.11%     99.58% # Reads before turning the bus around for writes
system.mem_ctrls.rdPerTurnAround::96-111          149      0.12%     99.70% # Reads before turning the bus around for writes
system.mem_ctrls.rdPerTurnAround::112-127          111      0.09%     99.79% # Reads before turning the bus around for writes
system.mem_ctrls.rdPerTurnAround::128-143          105      0.08%     99.87% # Reads before turning the bus around for writes
system.mem_ctrls.rdPerTurnAround::144-159           72      0.06%     99.92% # Reads before turning the bus around for writes
system.mem_ctrls.rdPerTurnAround::160-175           55      0.04%     99.97% # Reads before turning the bus around for writes
system.mem_ctrls.rdPerTurnAround::176-191           20      0.02%     99.98% # Reads before turning the bus around for writes
system.mem_ctrls.rdPerTurnAround::192-207           14      0.01%     99.99% # Reads before turning the bus around for writes
system.mem_ctrls.rdPerTurnAround::208-223            1      0.00%     99.99% # Reads before turning the bus around for writes
system.mem_ctrls.rdPerTurnAround::224-239            2      0.00%    100.00% # Reads before turning the bus around for writes
system.mem_ctrls.rdPerTurnAround::256-271            2      0.00%    100.00% # Reads before turning the bus around for writes
system.mem_ctrls.rdPerTurnAround::288-303            1      0.00%    100.00% # Reads before turning the bus around for writes
system.mem_ctrls.rdPerTurnAround::304-319            1      0.00%    100.00% # Reads before turning the bus around for writes
system.mem_ctrls.rdPerTurnAround::352-367            1      0.00%    100.00% # Reads before turning the bus around for writes
system.mem_ctrls.rdPerTurnAround::total        128491                       # Reads before turning the bus around for writes
system.mem_ctrls.wrPerTurnAround::samples       128491                       # Writes before turning the bus around for reads
system.mem_ctrls.wrPerTurnAround::mean      17.148742                       # Writes before turning the bus around for reads
system.mem_ctrls.wrPerTurnAround::gmean     17.111898                       # Writes before turning the bus around for reads
system.mem_ctrls.wrPerTurnAround::stdev      1.171394                       # Writes before turning the bus around for reads
system.mem_ctrls.wrPerTurnAround::16-17         61595     47.94%     47.94% # Writes before turning the bus around for reads
system.mem_ctrls.wrPerTurnAround::18-19         66137     51.47%     99.41% # Writes before turning the bus around for reads
system.mem_ctrls.wrPerTurnAround::20-21           664      0.52%     99.93% # Writes before turning the bus around for reads
system.mem_ctrls.wrPerTurnAround::22-23            25      0.02%     99.95% # Writes before turning the bus around for reads
system.mem_ctrls.wrPerTurnAround::24-25            13      0.01%     99.96% # Writes before turning the bus around for reads
system.mem_ctrls.wrPerTurnAround::26-27             8      0.01%     99.96% # Writes before turning the bus around for reads
system.mem_ctrls.wrPerTurnAround::28-29             9      0.01%     99.97% # Writes before turning the bus around for reads
system.mem_ctrls.wrPerTurnAround::30-31             6      0.00%     99.97% # Writes before turning the bus around for reads
system.mem_ctrls.wrPerTurnAround::32-33             5      0.00%     99.98% # Writes before turning the bus around for reads
system.mem_ctrls.wrPerTurnAround::34-35            17      0.01%     99.99% # Writes before turning the bus around for reads
system.mem_ctrls.wrPerTurnAround::36-37             2      0.00%     99.99% # Writes before turning the bus around for reads
system.mem_ctrls.wrPerTurnAround::40-41             6      0.00%    100.00% # Writes before turning the bus around for reads
system.mem_ctrls.wrPerTurnAround::44-45             1      0.00%    100.00% # Writes before turning the bus around for reads
system.mem_ctrls.wrPerTurnAround::72-73             1      0.00%    100.00% # Writes before turning the bus around for reads
system.mem_ctrls.wrPerTurnAround::76-77             1      0.00%    100.00% # Writes before turning the bus around for reads
system.mem_ctrls.wrPerTurnAround::86-87             1      0.00%    100.00% # Writes before turning the bus around for reads
system.mem_ctrls.wrPerTurnAround::total        128491                       # Writes before turning the bus around for reads
system.mem_ctrls.totQLat                 100750989675                       # Total ticks spent queuing
system.mem_ctrls.totMemAccLat            183451764675                       # Total ticks spent from burst creation until serviced by the DRAM
system.mem_ctrls.totBusLat                22053540000                       # Total ticks spent in databus transfers
system.mem_ctrls.avgQLat                     22842.36                       # Average queueing delay per DRAM burst
system.mem_ctrls.avgBusLat                    5000.00                       # Average bus latency per DRAM burst
system.mem_ctrls.avgMemAccLat                41592.36                       # Average memory access latency per DRAM burst
system.mem_ctrls.avgRdBW                       332.18                       # Average DRAM read bandwidth in MiByte/s
system.mem_ctrls.avgWrBW                       165.95                       # Average achieved write bandwidth in MiByte/s
system.mem_ctrls.avgRdBWSys                    332.27                       # Average system read bandwidth in MiByte/s
system.mem_ctrls.avgWrBWSys                    165.94                       # Average system write bandwidth in MiByte/s
system.mem_ctrls.peakBW                      12800.00                       # Theoretical peak bandwidth in MiByte/s
system.mem_ctrls.busUtil                         3.89                       # Data bus utilization in percentage
system.mem_ctrls.busUtilRead                     2.60                       # Data bus utilization in percentage for reads
system.mem_ctrls.busUtilWrite                    1.30                       # Data bus utilization in percentage for writes
system.mem_ctrls.avgRdQLen                       1.00                       # Average read queue length when enqueuing
system.mem_ctrls.avgWrQLen                      24.99                       # Average write queue length when enqueuing
system.mem_ctrls.readRowHits                   638321                       # Number of row buffer hits during reads
system.mem_ctrls.writeRowHits                   95896                       # Number of row buffer hits during writes
system.mem_ctrls.readRowHitRate                 14.47                       # Row buffer hit rate for reads
system.mem_ctrls.writeRowHitRate                 4.35                       # Row buffer hit rate for writes
system.mem_ctrls.avgGap                     128459.44                       # Average gap between requests
system.mem_ctrls.pageHitRate                    11.10                       # Row buffer hit rate, read and write combined
system.mem_ctrls_0.actEnergy              21956205600                       # Energy for activate commands per rank (pJ)
system.mem_ctrls_0.preEnergy              11980072500                       # Energy for precharge commands per rank (pJ)
system.mem_ctrls_0.readEnergy             17050410000                       # Energy for read commands per rank (pJ)
system.mem_ctrls_0.writeEnergy             7090480800                       # Energy for write commands per rank (pJ)
system.mem_ctrls_0.refreshEnergy          56045854800                       # Energy for refresh commands per rank (pJ)
system.mem_ctrls_0.actBackEnergy         551413498995                       # Energy for active background per rank (pJ)
system.mem_ctrls_0.preBackEnergy          31154313000                       # Energy for precharge background per rank (pJ)
system.mem_ctrls_0.totalEnergy           696690835695                       # Total energy per rank (pJ)
system.mem_ctrls_0.averagePower            811.914548                       # Core power per rank (mW)
system.mem_ctrls_0.memoryStateTime::IDLE  45489157500                       # Time in different power states
system.mem_ctrls_0.memoryStateTime::REF   28376920000                       # Time in different power states
system.mem_ctrls_0.memoryStateTime::PRE_PDN            0                       # Time in different power states
system.mem_ctrls_0.memoryStateTime::ACT  775940820000                       # Time in different power states
system.mem_ctrls_0.memoryStateTime::ACT_PDN            0                       # Time in different power states
system.mem_ctrls_1.actEnergy              22555229760                       # Energy for activate commands per rank (pJ)
system.mem_ctrls_1.preEnergy              12306921000                       # Energy for precharge commands per rank (pJ)
system.mem_ctrls_1.readEnergy             17666812800                       # Energy for read commands per rank (pJ)
system.mem_ctrls_1.writeEnergy             7201327680                       # Energy for write commands per rank (pJ)
system.mem_ctrls_1.refreshEnergy          56045854800                       # Energy for refresh commands per rank (pJ)
system.mem_ctrls_1.actBackEnergy         559687543470                       # Energy for active background per rank (pJ)
system.mem_ctrls_1.preBackEnergy          23896379250                       # Energy for precharge background per rank (pJ)
system.mem_ctrls_1.totalEnergy           699360068760                       # Total energy per rank (pJ)
system.mem_ctrls_1.averagePower            815.025238                       # Core power per rank (mW)
system.mem_ctrls_1.memoryStateTime::IDLE  33535844250                       # Time in different power states
system.mem_ctrls_1.memoryStateTime::REF   28376920000                       # Time in different power states
system.mem_ctrls_1.memoryStateTime::PRE_PDN            0                       # Time in different power states
system.mem_ctrls_1.memoryStateTime::ACT  787890851250                       # Time in different power states
system.mem_ctrls_1.memoryStateTime::ACT_PDN            0                       # Time in different power states
system.cpu_voltage_domain.voltage                   1                       # Voltage in Volts
system.cpu_clk_domain.clock                       500                       # Clock period in ticks
system.cpu0.apic_clk_domain.clock                8000                       # Clock period in ticks
system.cpu0.numCycles                      1701645251                       # number of cpu cycles simulated
system.cpu0.numWorkItemsStarted                     0                       # number of work items this cpu started
system.cpu0.numWorkItemsCompleted                   0                       # number of work items this cpu completed
system.cpu0.kern.inst.arm                           0                       # number of arm instructions executed
system.cpu0.kern.inst.quiesce                       0                       # number of quiesce instructions executed
system.cpu0.committedInsts                  124196069                       # Number of instructions committed
system.cpu0.committedOps                    203507255                       # Number of ops (including micro ops) committed
system.cpu0.num_int_alu_accesses            158331866                       # Number of integer alu accesses
system.cpu0.num_fp_alu_accesses              51469713                       # Number of float alu accesses
system.cpu0.num_func_calls                    2428711                       # number of times a function call or return occured
system.cpu0.num_conditional_control_insts      7428140                       # number of instructions that are conditional controls
system.cpu0.num_int_insts                   158331866                       # number of integer instructions
system.cpu0.num_fp_insts                     51469713                       # number of float instructions
system.cpu0.num_int_register_reads          337274937                       # number of times the integer registers were read
system.cpu0.num_int_register_writes         126311874                       # number of times the integer registers were written
system.cpu0.num_fp_register_reads            96849695                       # number of times the floating registers were read
system.cpu0.num_fp_register_writes           49751788                       # number of times the floating registers were written
system.cpu0.num_cc_register_reads            81554635                       # number of times the CC registers were read
system.cpu0.num_cc_register_writes           70174113                       # number of times the CC registers were written
system.cpu0.num_mem_refs                     42487732                       # number of memory refs
system.cpu0.num_load_insts                   33911495                       # Number of load instructions
system.cpu0.num_store_insts                   8576237                       # Number of store instructions
system.cpu0.num_idle_cycles              930833898.589682                       # Number of idle cycles
system.cpu0.num_busy_cycles              770811352.410318                       # Number of busy cycles
system.cpu0.not_idle_fraction                0.452980                       # Percentage of non-idle cycles
system.cpu0.idle_fraction                    0.547020                       # Percentage of idle cycles
system.cpu0.Branches                         11818842                       # Number of branches fetched
system.cpu0.op_class::No_OpClass              1811752      0.89%      0.89% # Class of executed instruction
system.cpu0.op_class::IntAlu                117156041     57.57%     58.46% # Class of executed instruction
system.cpu0.op_class::IntMult                    4244      0.00%     58.46% # Class of executed instruction
system.cpu0.op_class::IntDiv                     4324      0.00%     58.46% # Class of executed instruction
system.cpu0.op_class::FloatAdd               42045751     20.66%     79.12% # Class of executed instruction
system.cpu0.op_class::FloatCmp                      0      0.00%     79.12% # Class of executed instruction
system.cpu0.op_class::FloatCvt                      0      0.00%     79.12% # Class of executed instruction
system.cpu0.op_class::FloatMult                     0      0.00%     79.12% # Class of executed instruction
system.cpu0.op_class::FloatDiv                      0      0.00%     79.12% # Class of executed instruction
system.cpu0.op_class::FloatSqrt                     0      0.00%     79.12% # Class of executed instruction
system.cpu0.op_class::SimdAdd                       0      0.00%     79.12% # Class of executed instruction
system.cpu0.op_class::SimdAddAcc                    0      0.00%     79.12% # Class of executed instruction
system.cpu0.op_class::SimdAlu                       0      0.00%     79.12% # Class of executed instruction
system.cpu0.op_class::SimdCmp                       0      0.00%     79.12% # Class of executed instruction
system.cpu0.op_class::SimdCvt                       0      0.00%     79.12% # Class of executed instruction
system.cpu0.op_class::SimdMisc                      0      0.00%     79.12% # Class of executed instruction
system.cpu0.op_class::SimdMult                      0      0.00%     79.12% # Class of executed instruction
system.cpu0.op_class::SimdMultAcc                   0      0.00%     79.12% # Class of executed instruction
system.cpu0.op_class::SimdShift                     0      0.00%     79.12% # Class of executed instruction
system.cpu0.op_class::SimdShiftAcc                  0      0.00%     79.12% # Class of executed instruction
system.cpu0.op_class::SimdSqrt                      0      0.00%     79.12% # Class of executed instruction
system.cpu0.op_class::SimdFloatAdd                  0      0.00%     79.12% # Class of executed instruction
system.cpu0.op_class::SimdFloatAlu                  0      0.00%     79.12% # Class of executed instruction
system.cpu0.op_class::SimdFloatCmp                  0      0.00%     79.12% # Class of executed instruction
system.cpu0.op_class::SimdFloatCvt                  0      0.00%     79.12% # Class of executed instruction
system.cpu0.op_class::SimdFloatDiv                  0      0.00%     79.12% # Class of executed instruction
system.cpu0.op_class::SimdFloatMisc                 0      0.00%     79.12% # Class of executed instruction
system.cpu0.op_class::SimdFloatMult                 0      0.00%     79.12% # Class of executed instruction
system.cpu0.op_class::SimdFloatMultAcc              0      0.00%     79.12% # Class of executed instruction
system.cpu0.op_class::SimdFloatSqrt                 0      0.00%     79.12% # Class of executed instruction
system.cpu0.op_class::MemRead                33911495     16.66%     95.79% # Class of executed instruction
system.cpu0.op_class::MemWrite                8576237      4.21%    100.00% # Class of executed instruction
system.cpu0.op_class::IprAccess                     0      0.00%    100.00% # Class of executed instruction
system.cpu0.op_class::InstPrefetch                  0      0.00%    100.00% # Class of executed instruction
system.cpu0.op_class::total                 203509844                       # Class of executed instruction
system.cpu1.apic_clk_domain.clock                8000                       # Clock period in ticks
system.cpu1.numCycles                      1695598271                       # number of cpu cycles simulated
system.cpu1.numWorkItemsStarted                     0                       # number of work items this cpu started
system.cpu1.numWorkItemsCompleted                   0                       # number of work items this cpu completed
system.cpu1.kern.inst.arm                           0                       # number of arm instructions executed
system.cpu1.kern.inst.quiesce                       0                       # number of quiesce instructions executed
system.cpu1.committedInsts                    2322430                       # Number of instructions committed
system.cpu1.committedOps                      4705579                       # Number of ops (including micro ops) committed
system.cpu1.num_int_alu_accesses              4630176                       # Number of integer alu accesses
system.cpu1.num_fp_alu_accesses                    68                       # Number of float alu accesses
system.cpu1.num_func_calls                     111008                       # number of times a function call or return occured
system.cpu1.num_conditional_control_insts       409130                       # number of instructions that are conditional controls
system.cpu1.num_int_insts                     4630176                       # number of integer instructions
system.cpu1.num_fp_insts                           68                       # number of float instructions
system.cpu1.num_int_register_reads            8991544                       # number of times the integer registers were read
system.cpu1.num_int_register_writes           3796474                       # number of times the integer registers were written
system.cpu1.num_fp_register_reads                  70                       # number of times the floating registers were read
system.cpu1.num_fp_register_writes                 62                       # number of times the floating registers were written
system.cpu1.num_cc_register_reads             2996899                       # number of times the CC registers were read
system.cpu1.num_cc_register_writes            1626750                       # number of times the CC registers were written
system.cpu1.num_mem_refs                       925193                       # number of memory refs
system.cpu1.num_load_insts                     593756                       # Number of load instructions
system.cpu1.num_store_insts                    331437                       # Number of store instructions
system.cpu1.num_idle_cycles              1685276399.584789                       # Number of idle cycles
system.cpu1.num_busy_cycles              10321871.415211                       # Number of busy cycles
system.cpu1.not_idle_fraction                0.006087                       # Percentage of non-idle cycles
system.cpu1.idle_fraction                    0.993913                       # Percentage of idle cycles
system.cpu1.Branches                           556235                       # Number of branches fetched
system.cpu1.op_class::No_OpClass                42982      0.91%      0.91% # Class of executed instruction
system.cpu1.op_class::IntAlu                  3722910     79.11%     80.02% # Class of executed instruction
system.cpu1.op_class::IntMult                    7651      0.16%     80.18% # Class of executed instruction
system.cpu1.op_class::IntDiv                     7380      0.16%     80.34% # Class of executed instruction
system.cpu1.op_class::FloatAdd                     24      0.00%     80.34% # Class of executed instruction
system.cpu1.op_class::FloatCmp                      0      0.00%     80.34% # Class of executed instruction
system.cpu1.op_class::FloatCvt                      0      0.00%     80.34% # Class of executed instruction
system.cpu1.op_class::FloatMult                     0      0.00%     80.34% # Class of executed instruction
system.cpu1.op_class::FloatDiv                      0      0.00%     80.34% # Class of executed instruction
system.cpu1.op_class::FloatSqrt                     0      0.00%     80.34% # Class of executed instruction
system.cpu1.op_class::SimdAdd                       0      0.00%     80.34% # Class of executed instruction
system.cpu1.op_class::SimdAddAcc                    0      0.00%     80.34% # Class of executed instruction
system.cpu1.op_class::SimdAlu                       0      0.00%     80.34% # Class of executed instruction
system.cpu1.op_class::SimdCmp                       0      0.00%     80.34% # Class of executed instruction
system.cpu1.op_class::SimdCvt                       0      0.00%     80.34% # Class of executed instruction
system.cpu1.op_class::SimdMisc                      0      0.00%     80.34% # Class of executed instruction
system.cpu1.op_class::SimdMult                      0      0.00%     80.34% # Class of executed instruction
system.cpu1.op_class::SimdMultAcc                   0      0.00%     80.34% # Class of executed instruction
system.cpu1.op_class::SimdShift                     0      0.00%     80.34% # Class of executed instruction
system.cpu1.op_class::SimdShiftAcc                  0      0.00%     80.34% # Class of executed instruction
system.cpu1.op_class::SimdSqrt                      0      0.00%     80.34% # Class of executed instruction
system.cpu1.op_class::SimdFloatAdd                  0      0.00%     80.34% # Class of executed instruction
system.cpu1.op_class::SimdFloatAlu                  0      0.00%     80.34% # Class of executed instruction
system.cpu1.op_class::SimdFloatCmp                  0      0.00%     80.34% # Class of executed instruction
system.cpu1.op_class::SimdFloatCvt                  0      0.00%     80.34% # Class of executed instruction
system.cpu1.op_class::SimdFloatDiv                  0      0.00%     80.34% # Class of executed instruction
system.cpu1.op_class::SimdFloatMisc                 0      0.00%     80.34% # Class of executed instruction
system.cpu1.op_class::SimdFloatMult                 0      0.00%     80.34% # Class of executed instruction
system.cpu1.op_class::SimdFloatMultAcc              0      0.00%     80.34% # Class of executed instruction
system.cpu1.op_class::SimdFloatSqrt                 0      0.00%     80.34% # Class of executed instruction
system.cpu1.op_class::MemRead                  593756     12.62%     92.96% # Class of executed instruction
system.cpu1.op_class::MemWrite                 331437      7.04%    100.00% # Class of executed instruction
system.cpu1.op_class::IprAccess                     0      0.00%    100.00% # Class of executed instruction
system.cpu1.op_class::InstPrefetch                  0      0.00%    100.00% # Class of executed instruction
system.cpu1.op_class::total                   4706140                       # Class of executed instruction
system.cpu2.apic_clk_domain.clock                8000                       # Clock period in ticks
system.cpu2.numCycles                      1697638868                       # number of cpu cycles simulated
system.cpu2.numWorkItemsStarted                     0                       # number of work items this cpu started
system.cpu2.numWorkItemsCompleted                   0                       # number of work items this cpu completed
system.cpu2.kern.inst.arm                           0                       # number of arm instructions executed
system.cpu2.kern.inst.quiesce                       0                       # number of quiesce instructions executed
system.cpu2.committedInsts                  149150949                       # Number of instructions committed
system.cpu2.committedOps                    247064344                       # Number of ops (including micro ops) committed
system.cpu2.num_int_alu_accesses            196050842                       # Number of integer alu accesses
system.cpu2.num_fp_alu_accesses              58126292                       # Number of float alu accesses
system.cpu2.num_func_calls                    3129954                       # number of times a function call or return occured
system.cpu2.num_conditional_control_insts      9691251                       # number of instructions that are conditional controls
system.cpu2.num_int_insts                   196050842                       # number of integer instructions
system.cpu2.num_fp_insts                     58126292                       # number of float instructions
system.cpu2.num_int_register_reads          415105628                       # number of times the integer registers were read
system.cpu2.num_int_register_writes         156114872                       # number of times the integer registers were written
system.cpu2.num_fp_register_reads           107770796                       # number of times the floating registers were read
system.cpu2.num_fp_register_writes           55890855                       # number of times the floating registers were written
system.cpu2.num_cc_register_reads           101020346                       # number of times the CC registers were read
system.cpu2.num_cc_register_writes           85602407                       # number of times the CC registers were written
system.cpu2.num_mem_refs                     52049498                       # number of memory refs
system.cpu2.num_load_insts                   41000731                       # Number of load instructions
system.cpu2.num_store_insts                  11048767                       # Number of store instructions
system.cpu2.num_idle_cycles              767886383.811488                       # Number of idle cycles
system.cpu2.num_busy_cycles              929752484.188512                       # Number of busy cycles
system.cpu2.not_idle_fraction                0.547674                       # Percentage of non-idle cycles
system.cpu2.idle_fraction                    0.452326                       # Percentage of idle cycles
system.cpu2.Branches                         15597571                       # Number of branches fetched
system.cpu2.op_class::No_OpClass              2135300      0.86%      0.86% # Class of executed instruction
system.cpu2.op_class::IntAlu                143900478     58.24%     59.11% # Class of executed instruction
system.cpu2.op_class::IntMult                    3930      0.00%     59.11% # Class of executed instruction
system.cpu2.op_class::IntDiv                     4212      0.00%     59.11% # Class of executed instruction
system.cpu2.op_class::FloatAdd               48971018     19.82%     78.93% # Class of executed instruction
system.cpu2.op_class::FloatCmp                      0      0.00%     78.93% # Class of executed instruction
system.cpu2.op_class::FloatCvt                      0      0.00%     78.93% # Class of executed instruction
system.cpu2.op_class::FloatMult                     0      0.00%     78.93% # Class of executed instruction
system.cpu2.op_class::FloatDiv                      0      0.00%     78.93% # Class of executed instruction
system.cpu2.op_class::FloatSqrt                     0      0.00%     78.93% # Class of executed instruction
system.cpu2.op_class::SimdAdd                       0      0.00%     78.93% # Class of executed instruction
system.cpu2.op_class::SimdAddAcc                    0      0.00%     78.93% # Class of executed instruction
system.cpu2.op_class::SimdAlu                       0      0.00%     78.93% # Class of executed instruction
system.cpu2.op_class::SimdCmp                       0      0.00%     78.93% # Class of executed instruction
system.cpu2.op_class::SimdCvt                       0      0.00%     78.93% # Class of executed instruction
system.cpu2.op_class::SimdMisc                      0      0.00%     78.93% # Class of executed instruction
system.cpu2.op_class::SimdMult                      0      0.00%     78.93% # Class of executed instruction
system.cpu2.op_class::SimdMultAcc                   0      0.00%     78.93% # Class of executed instruction
system.cpu2.op_class::SimdShift                     0      0.00%     78.93% # Class of executed instruction
system.cpu2.op_class::SimdShiftAcc                  0      0.00%     78.93% # Class of executed instruction
system.cpu2.op_class::SimdSqrt                      0      0.00%     78.93% # Class of executed instruction
system.cpu2.op_class::SimdFloatAdd                  0      0.00%     78.93% # Class of executed instruction
system.cpu2.op_class::SimdFloatAlu                  0      0.00%     78.93% # Class of executed instruction
system.cpu2.op_class::SimdFloatCmp                  0      0.00%     78.93% # Class of executed instruction
system.cpu2.op_class::SimdFloatCvt                  0      0.00%     78.93% # Class of executed instruction
system.cpu2.op_class::SimdFloatDiv                  0      0.00%     78.93% # Class of executed instruction
system.cpu2.op_class::SimdFloatMisc                 0      0.00%     78.93% # Class of executed instruction
system.cpu2.op_class::SimdFloatMult                 0      0.00%     78.93% # Class of executed instruction
system.cpu2.op_class::SimdFloatMultAcc              0      0.00%     78.93% # Class of executed instruction
system.cpu2.op_class::SimdFloatSqrt                 0      0.00%     78.93% # Class of executed instruction
system.cpu2.op_class::MemRead                41000731     16.60%     95.53% # Class of executed instruction
system.cpu2.op_class::MemWrite               11048767      4.47%    100.00% # Class of executed instruction
system.cpu2.op_class::IprAccess                     0      0.00%    100.00% # Class of executed instruction
system.cpu2.op_class::InstPrefetch                  0      0.00%    100.00% # Class of executed instruction
system.cpu2.op_class::total                 247064436                       # Class of executed instruction
system.cpu3.apic_clk_domain.clock                8000                       # Clock period in ticks
system.cpu3.numCycles                      1704379631                       # number of cpu cycles simulated
system.cpu3.numWorkItemsStarted                     0                       # number of work items this cpu started
system.cpu3.numWorkItemsCompleted                   0                       # number of work items this cpu completed
system.cpu3.kern.inst.arm                           0                       # number of arm instructions executed
system.cpu3.kern.inst.quiesce                       0                       # number of quiesce instructions executed
system.cpu3.committedInsts                     954758                       # Number of instructions committed
system.cpu3.committedOps                      1983671                       # Number of ops (including micro ops) committed
system.cpu3.num_int_alu_accesses              1950428                       # Number of integer alu accesses
system.cpu3.num_fp_alu_accesses                   404                       # Number of float alu accesses
system.cpu3.num_func_calls                      50158                       # number of times a function call or return occured
system.cpu3.num_conditional_control_insts       174259                       # number of instructions that are conditional controls
system.cpu3.num_int_insts                     1950428                       # number of integer instructions
system.cpu3.num_fp_insts                          404                       # number of float instructions
system.cpu3.num_int_register_reads            3791087                       # number of times the integer registers were read
system.cpu3.num_int_register_writes           1591317                       # number of times the integer registers were written
system.cpu3.num_fp_register_reads                 712                       # number of times the floating registers were read
system.cpu3.num_fp_register_writes                364                       # number of times the floating registers were written
system.cpu3.num_cc_register_reads             1269526                       # number of times the CC registers were read
system.cpu3.num_cc_register_writes             647364                       # number of times the CC registers were written
system.cpu3.num_mem_refs                       415507                       # number of memory refs
system.cpu3.num_load_insts                     259825                       # Number of load instructions
system.cpu3.num_store_insts                    155682                       # Number of store instructions
system.cpu3.num_idle_cycles              1700116086.932382                       # Number of idle cycles
system.cpu3.num_busy_cycles              4263544.067618                       # Number of busy cycles
system.cpu3.not_idle_fraction                0.002502                       # Percentage of non-idle cycles
system.cpu3.idle_fraction                    0.997498                       # Percentage of idle cycles
system.cpu3.Branches                           239587                       # Number of branches fetched
system.cpu3.op_class::No_OpClass                23018      1.16%      1.16% # Class of executed instruction
system.cpu3.op_class::IntAlu                  1533940     77.33%     78.49% # Class of executed instruction
system.cpu3.op_class::IntMult                    3857      0.19%     78.68% # Class of executed instruction
system.cpu3.op_class::IntDiv                     7063      0.36%     79.04% # Class of executed instruction
system.cpu3.op_class::FloatAdd                    320      0.02%     79.05% # Class of executed instruction
system.cpu3.op_class::FloatCmp                      0      0.00%     79.05% # Class of executed instruction
system.cpu3.op_class::FloatCvt                      0      0.00%     79.05% # Class of executed instruction
system.cpu3.op_class::FloatMult                     0      0.00%     79.05% # Class of executed instruction
system.cpu3.op_class::FloatDiv                      0      0.00%     79.05% # Class of executed instruction
system.cpu3.op_class::FloatSqrt                     0      0.00%     79.05% # Class of executed instruction
system.cpu3.op_class::SimdAdd                       0      0.00%     79.05% # Class of executed instruction
system.cpu3.op_class::SimdAddAcc                    0      0.00%     79.05% # Class of executed instruction
system.cpu3.op_class::SimdAlu                       0      0.00%     79.05% # Class of executed instruction
system.cpu3.op_class::SimdCmp                       0      0.00%     79.05% # Class of executed instruction
system.cpu3.op_class::SimdCvt                       0      0.00%     79.05% # Class of executed instruction
system.cpu3.op_class::SimdMisc                      0      0.00%     79.05% # Class of executed instruction
system.cpu3.op_class::SimdMult                      0      0.00%     79.05% # Class of executed instruction
system.cpu3.op_class::SimdMultAcc                   0      0.00%     79.05% # Class of executed instruction
system.cpu3.op_class::SimdShift                     0      0.00%     79.05% # Class of executed instruction
system.cpu3.op_class::SimdShiftAcc                  0      0.00%     79.05% # Class of executed instruction
system.cpu3.op_class::SimdSqrt                      0      0.00%     79.05% # Class of executed instruction
system.cpu3.op_class::SimdFloatAdd                  0      0.00%     79.05% # Class of executed instruction
system.cpu3.op_class::SimdFloatAlu                  0      0.00%     79.05% # Class of executed instruction
system.cpu3.op_class::SimdFloatCmp                  0      0.00%     79.05% # Class of executed instruction
system.cpu3.op_class::SimdFloatCvt                  0      0.00%     79.05% # Class of executed instruction
system.cpu3.op_class::SimdFloatDiv                  0      0.00%     79.05% # Class of executed instruction
system.cpu3.op_class::SimdFloatMisc                 0      0.00%     79.05% # Class of executed instruction
system.cpu3.op_class::SimdFloatMult                 0      0.00%     79.05% # Class of executed instruction
system.cpu3.op_class::SimdFloatMultAcc              0      0.00%     79.05% # Class of executed instruction
system.cpu3.op_class::SimdFloatSqrt                 0      0.00%     79.05% # Class of executed instruction
system.cpu3.op_class::MemRead                  259825     13.10%     92.15% # Class of executed instruction
system.cpu3.op_class::MemWrite                 155682      7.85%    100.00% # Class of executed instruction
system.cpu3.op_class::IprAccess                     0      0.00%    100.00% # Class of executed instruction
system.cpu3.op_class::InstPrefetch                  0      0.00%    100.00% # Class of executed instruction
system.cpu3.op_class::total                   1983705                       # Class of executed instruction
system.iobus.trans_dist::ReadReq                  566                       # Transaction distribution
system.iobus.trans_dist::ReadResp                 566                       # Transaction distribution
system.iobus.trans_dist::WriteReq                1887                       # Transaction distribution
system.iobus.trans_dist::WriteResp               1887                       # Transaction distribution
system.iobus.trans_dist::MessageReq                78                       # Transaction distribution
system.iobus.trans_dist::MessageResp               78                       # Transaction distribution
system.iobus.pkt_count_system.pc.south_bridge.io_apic.int_master::system.ruby.l1_cntrl0.sequencer.pio-slave-port           32                       # Packet count per connected master and slave (bytes)
system.iobus.pkt_count_system.pc.south_bridge.io_apic.int_master::system.ruby.l1_cntrl1.sequencer.pio-slave-port           32                       # Packet count per connected master and slave (bytes)
system.iobus.pkt_count_system.pc.south_bridge.io_apic.int_master::system.ruby.l1_cntrl2.sequencer.pio-slave-port           32                       # Packet count per connected master and slave (bytes)
system.iobus.pkt_count_system.pc.south_bridge.io_apic.int_master::system.ruby.l1_cntrl3.sequencer.pio-slave-port           32                       # Packet count per connected master and slave (bytes)
system.iobus.pkt_count_system.pc.south_bridge.io_apic.int_master::total          128                       # Packet count per connected master and slave (bytes)
system.iobus.pkt_count_system.ruby.l1_cntrl0.sequencer.mem-master-port::system.pc.south_bridge.ide.pio          656                       # Packet count per connected master and slave (bytes)
system.iobus.pkt_count_system.ruby.l1_cntrl0.sequencer.mem-master-port::system.pc.south_bridge.io_apic.pio            8                       # Packet count per connected master and slave (bytes)
system.iobus.pkt_count_system.ruby.l1_cntrl0.sequencer.mem-master-port::system.ruby.l1_cntrl0.sequencer.pio-slave-port          498                       # Packet count per connected master and slave (bytes)
system.iobus.pkt_count_system.ruby.l1_cntrl0.sequencer.mem-master-port::system.ruby.l1_cntrl1.sequencer.pio-slave-port            4                       # Packet count per connected master and slave (bytes)
system.iobus.pkt_count_system.ruby.l1_cntrl0.sequencer.mem-master-port::system.ruby.l1_cntrl2.sequencer.pio-slave-port            2                       # Packet count per connected master and slave (bytes)
system.iobus.pkt_count_system.ruby.l1_cntrl0.sequencer.mem-master-port::system.ruby.l1_cntrl3.sequencer.pio-slave-port            4                       # Packet count per connected master and slave (bytes)
system.iobus.pkt_count_system.ruby.l1_cntrl0.sequencer.mem-master-port::total         1172                       # Packet count per connected master and slave (bytes)
system.iobus.pkt_count_system.ruby.l1_cntrl1.sequencer.mem-master-port::system.pc.south_bridge.ide.pio          928                       # Packet count per connected master and slave (bytes)
system.iobus.pkt_count_system.ruby.l1_cntrl1.sequencer.mem-master-port::system.pc.south_bridge.io_apic.pio            8                       # Packet count per connected master and slave (bytes)
system.iobus.pkt_count_system.ruby.l1_cntrl1.sequencer.mem-master-port::system.ruby.l1_cntrl0.sequencer.pio-slave-port            2                       # Packet count per connected master and slave (bytes)
system.iobus.pkt_count_system.ruby.l1_cntrl1.sequencer.mem-master-port::system.ruby.l1_cntrl1.sequencer.pio-slave-port          476                       # Packet count per connected master and slave (bytes)
system.iobus.pkt_count_system.ruby.l1_cntrl1.sequencer.mem-master-port::system.ruby.l1_cntrl2.sequencer.pio-slave-port            2                       # Packet count per connected master and slave (bytes)
system.iobus.pkt_count_system.ruby.l1_cntrl1.sequencer.mem-master-port::total         1416                       # Packet count per connected master and slave (bytes)
system.iobus.pkt_count_system.ruby.l1_cntrl2.sequencer.mem-master-port::system.pc.south_bridge.ide.pio          588                       # Packet count per connected master and slave (bytes)
system.iobus.pkt_count_system.ruby.l1_cntrl2.sequencer.mem-master-port::system.pc.south_bridge.io_apic.pio            8                       # Packet count per connected master and slave (bytes)
system.iobus.pkt_count_system.ruby.l1_cntrl2.sequencer.mem-master-port::system.pc.com_1.pio            2                       # Packet count per connected master and slave (bytes)
system.iobus.pkt_count_system.ruby.l1_cntrl2.sequencer.mem-master-port::system.ruby.l1_cntrl0.sequencer.pio-slave-port            6                       # Packet count per connected master and slave (bytes)
system.iobus.pkt_count_system.ruby.l1_cntrl2.sequencer.mem-master-port::system.ruby.l1_cntrl1.sequencer.pio-slave-port            2                       # Packet count per connected master and slave (bytes)
system.iobus.pkt_count_system.ruby.l1_cntrl2.sequencer.mem-master-port::system.ruby.l1_cntrl2.sequencer.pio-slave-port          490                       # Packet count per connected master and slave (bytes)
system.iobus.pkt_count_system.ruby.l1_cntrl2.sequencer.mem-master-port::system.ruby.l1_cntrl3.sequencer.pio-slave-port            2                       # Packet count per connected master and slave (bytes)
system.iobus.pkt_count_system.ruby.l1_cntrl2.sequencer.mem-master-port::total         1098                       # Packet count per connected master and slave (bytes)
system.iobus.pkt_count_system.ruby.l1_cntrl3.sequencer.mem-master-port::system.pc.south_bridge.ide.pio          588                       # Packet count per connected master and slave (bytes)
system.iobus.pkt_count_system.ruby.l1_cntrl3.sequencer.mem-master-port::system.pc.south_bridge.io_apic.pio            6                       # Packet count per connected master and slave (bytes)
system.iobus.pkt_count_system.ruby.l1_cntrl3.sequencer.mem-master-port::system.pc.com_1.pio          174                       # Packet count per connected master and slave (bytes)
system.iobus.pkt_count_system.ruby.l1_cntrl3.sequencer.mem-master-port::system.ruby.l1_cntrl0.sequencer.pio-slave-port            2                       # Packet count per connected master and slave (bytes)
system.iobus.pkt_count_system.ruby.l1_cntrl3.sequencer.mem-master-port::system.ruby.l1_cntrl1.sequencer.pio-slave-port            2                       # Packet count per connected master and slave (bytes)
system.iobus.pkt_count_system.ruby.l1_cntrl3.sequencer.mem-master-port::system.ruby.l1_cntrl3.sequencer.pio-slave-port          476                       # Packet count per connected master and slave (bytes)
system.iobus.pkt_count_system.ruby.l1_cntrl3.sequencer.mem-master-port::total         1248                       # Packet count per connected master and slave (bytes)
system.iobus.pkt_count::total                    5062                       # Packet count per connected master and slave (bytes)
system.iobus.pkt_size_system.pc.south_bridge.io_apic.int_master::system.ruby.l1_cntrl0.sequencer.pio-slave-port           64                       # Cumulative packet size per connected master and slave (bytes)
system.iobus.pkt_size_system.pc.south_bridge.io_apic.int_master::system.ruby.l1_cntrl1.sequencer.pio-slave-port           64                       # Cumulative packet size per connected master and slave (bytes)
system.iobus.pkt_size_system.pc.south_bridge.io_apic.int_master::system.ruby.l1_cntrl2.sequencer.pio-slave-port           64                       # Cumulative packet size per connected master and slave (bytes)
system.iobus.pkt_size_system.pc.south_bridge.io_apic.int_master::system.ruby.l1_cntrl3.sequencer.pio-slave-port           64                       # Cumulative packet size per connected master and slave (bytes)
system.iobus.pkt_size_system.pc.south_bridge.io_apic.int_master::total          256                       # Cumulative packet size per connected master and slave (bytes)
system.iobus.pkt_size_system.ruby.l1_cntrl0.sequencer.mem-master-port::system.pc.south_bridge.ide.pio          370                       # Cumulative packet size per connected master and slave (bytes)
system.iobus.pkt_size_system.ruby.l1_cntrl0.sequencer.mem-master-port::system.pc.south_bridge.io_apic.pio           16                       # Cumulative packet size per connected master and slave (bytes)
system.iobus.pkt_size_system.ruby.l1_cntrl0.sequencer.mem-master-port::system.ruby.l1_cntrl0.sequencer.pio-slave-port          996                       # Cumulative packet size per connected master and slave (bytes)
system.iobus.pkt_size_system.ruby.l1_cntrl0.sequencer.mem-master-port::system.ruby.l1_cntrl1.sequencer.pio-slave-port            8                       # Cumulative packet size per connected master and slave (bytes)
system.iobus.pkt_size_system.ruby.l1_cntrl0.sequencer.mem-master-port::system.ruby.l1_cntrl2.sequencer.pio-slave-port            4                       # Cumulative packet size per connected master and slave (bytes)
system.iobus.pkt_size_system.ruby.l1_cntrl0.sequencer.mem-master-port::system.ruby.l1_cntrl3.sequencer.pio-slave-port            8                       # Cumulative packet size per connected master and slave (bytes)
system.iobus.pkt_size_system.ruby.l1_cntrl0.sequencer.mem-master-port::total         1402                       # Cumulative packet size per connected master and slave (bytes)
system.iobus.pkt_size_system.ruby.l1_cntrl1.sequencer.mem-master-port::system.pc.south_bridge.ide.pio          530                       # Cumulative packet size per connected master and slave (bytes)
system.iobus.pkt_size_system.ruby.l1_cntrl1.sequencer.mem-master-port::system.pc.south_bridge.io_apic.pio           16                       # Cumulative packet size per connected master and slave (bytes)
system.iobus.pkt_size_system.ruby.l1_cntrl1.sequencer.mem-master-port::system.ruby.l1_cntrl0.sequencer.pio-slave-port            4                       # Cumulative packet size per connected master and slave (bytes)
system.iobus.pkt_size_system.ruby.l1_cntrl1.sequencer.mem-master-port::system.ruby.l1_cntrl1.sequencer.pio-slave-port          952                       # Cumulative packet size per connected master and slave (bytes)
system.iobus.pkt_size_system.ruby.l1_cntrl1.sequencer.mem-master-port::system.ruby.l1_cntrl2.sequencer.pio-slave-port            4                       # Cumulative packet size per connected master and slave (bytes)
system.iobus.pkt_size_system.ruby.l1_cntrl1.sequencer.mem-master-port::total         1506                       # Cumulative packet size per connected master and slave (bytes)
system.iobus.pkt_size_system.ruby.l1_cntrl2.sequencer.mem-master-port::system.pc.south_bridge.ide.pio          330                       # Cumulative packet size per connected master and slave (bytes)
system.iobus.pkt_size_system.ruby.l1_cntrl2.sequencer.mem-master-port::system.pc.south_bridge.io_apic.pio           16                       # Cumulative packet size per connected master and slave (bytes)
system.iobus.pkt_size_system.ruby.l1_cntrl2.sequencer.mem-master-port::system.pc.com_1.pio            1                       # Cumulative packet size per connected master and slave (bytes)
system.iobus.pkt_size_system.ruby.l1_cntrl2.sequencer.mem-master-port::system.ruby.l1_cntrl0.sequencer.pio-slave-port           12                       # Cumulative packet size per connected master and slave (bytes)
system.iobus.pkt_size_system.ruby.l1_cntrl2.sequencer.mem-master-port::system.ruby.l1_cntrl1.sequencer.pio-slave-port            4                       # Cumulative packet size per connected master and slave (bytes)
system.iobus.pkt_size_system.ruby.l1_cntrl2.sequencer.mem-master-port::system.ruby.l1_cntrl2.sequencer.pio-slave-port          980                       # Cumulative packet size per connected master and slave (bytes)
system.iobus.pkt_size_system.ruby.l1_cntrl2.sequencer.mem-master-port::system.ruby.l1_cntrl3.sequencer.pio-slave-port            4                       # Cumulative packet size per connected master and slave (bytes)
system.iobus.pkt_size_system.ruby.l1_cntrl2.sequencer.mem-master-port::total         1347                       # Cumulative packet size per connected master and slave (bytes)
system.iobus.pkt_size_system.ruby.l1_cntrl3.sequencer.mem-master-port::system.pc.south_bridge.ide.pio          330                       # Cumulative packet size per connected master and slave (bytes)
system.iobus.pkt_size_system.ruby.l1_cntrl3.sequencer.mem-master-port::system.pc.south_bridge.io_apic.pio           12                       # Cumulative packet size per connected master and slave (bytes)
system.iobus.pkt_size_system.ruby.l1_cntrl3.sequencer.mem-master-port::system.pc.com_1.pio           87                       # Cumulative packet size per connected master and slave (bytes)
system.iobus.pkt_size_system.ruby.l1_cntrl3.sequencer.mem-master-port::system.ruby.l1_cntrl0.sequencer.pio-slave-port            4                       # Cumulative packet size per connected master and slave (bytes)
system.iobus.pkt_size_system.ruby.l1_cntrl3.sequencer.mem-master-port::system.ruby.l1_cntrl1.sequencer.pio-slave-port            4                       # Cumulative packet size per connected master and slave (bytes)
system.iobus.pkt_size_system.ruby.l1_cntrl3.sequencer.mem-master-port::system.ruby.l1_cntrl3.sequencer.pio-slave-port          952                       # Cumulative packet size per connected master and slave (bytes)
system.iobus.pkt_size_system.ruby.l1_cntrl3.sequencer.mem-master-port::total         1389                       # Cumulative packet size per connected master and slave (bytes)
system.iobus.pkt_size::total                     5900                       # Cumulative packet size per connected master and slave (bytes)
system.iobus.reqLayer2.occupancy              2397500                       # Layer occupancy (ticks)
system.iobus.reqLayer2.utilization                0.0                       # Layer utilization (%)
system.iobus.reqLayer8.occupancy                27996                       # Layer occupancy (ticks)
system.iobus.reqLayer8.utilization                0.0                       # Layer utilization (%)
system.iobus.reqLayer12.occupancy              113500                       # Layer occupancy (ticks)
system.iobus.reqLayer12.utilization               0.0                       # Layer utilization (%)
system.iobus.reqLayer17.occupancy              684374                       # Layer occupancy (ticks)
system.iobus.reqLayer17.utilization               0.0                       # Layer utilization (%)
system.iobus.reqLayer18.occupancy              632484                       # Layer occupancy (ticks)
system.iobus.reqLayer18.utilization               0.0                       # Layer utilization (%)
system.iobus.reqLayer19.occupancy              670367                       # Layer occupancy (ticks)
system.iobus.reqLayer19.utilization               0.0                       # Layer utilization (%)
system.iobus.reqLayer20.occupancy              629985                       # Layer occupancy (ticks)
system.iobus.reqLayer20.utilization               0.0                       # Layer utilization (%)
system.iobus.respLayer0.occupancy              114940                       # Layer occupancy (ticks)
system.iobus.respLayer0.utilization               0.0                       # Layer utilization (%)
system.iobus.respLayer2.occupancy              833500                       # Layer occupancy (ticks)
system.iobus.respLayer2.utilization               0.0                       # Layer utilization (%)
system.iobus.respLayer4.occupancy              979000                       # Layer occupancy (ticks)
system.iobus.respLayer4.utilization               0.0                       # Layer utilization (%)
system.iobus.respLayer6.occupancy              786500                       # Layer occupancy (ticks)
system.iobus.respLayer6.utilization               0.0                       # Layer utilization (%)
system.iobus.respLayer8.occupancy              919000                       # Layer occupancy (ticks)
system.iobus.respLayer8.utilization               0.0                       # Layer utilization (%)
system.pc.south_bridge.ide.disks.dma_read_full_pages          886                       # Number of full page size DMA reads (not PRD).
system.pc.south_bridge.ide.disks.dma_read_bytes      3629056                       # Number of bytes transfered via DMA reads (not PRD).
system.pc.south_bridge.ide.disks.dma_read_txs          886                       # Number of DMA read transactions (not PRD).
[...]
system.ruby.L1Cache_Controller.O.Fwd_GETS |       10317     31.77%     31.77% |        8996     27.70%     59.47% |         539      1.66%     61.13% |       12622     38.87%    100.00%
system.ruby.L1Cache_Controller.O.Fwd_GETS::total        32474                      
system.ruby.L1Cache_Controller.M.Load    |     1975974     34.33%     34.33% |       83256      1.45%     35.78% |     3657827     63.56%     99.34% |       38243      0.66%    100.00%
system.ruby.L1Cache_Controller.M.Load::total      5755300                      
system.ruby.L1Cache_Controller.M.Store   |       43379     25.66%     25.66% |        4649      2.75%     28.41% |      118351     70.00%     98.41% |        2696      1.59%    100.00%
system.ruby.L1Cache_Controller.M.Store::total       169075                      
system.ruby.L1Cache_Controller.M.L1_Replacement |       60816     35.65%     35.65% |        3540      2.07%     37.72% |      104087     61.01%     98.73% |        2172      1.27%    100.00%
system.ruby.L1Cache_Controller.M.L1_Replacement::total       170615                      
system.ruby.L1Cache_Controller.M.Fwd_GETX |          73      7.22%      7.22% |         195     19.29%     26.51% |         520     51.43%     77.94% |         223     22.06%    100.00%
system.ruby.L1Cache_Controller.M.Fwd_GETX::total         1011                      
system.ruby.L1Cache_Controller.M.Fwd_GETS |        1072     17.39%     17.39% |        2631     42.67%     60.06% |         831     13.48%     73.53% |        1632     26.47%    100.00%
system.ruby.L1Cache_Controller.M.Fwd_GETS::total         6166                      
system.ruby.L1Cache_Controller.M_W.Load  |       36777     26.59%     26.59% |        7185      5.19%     31.78% |       89382     64.62%     96.40% |        4975      3.60%    100.00%
system.ruby.L1Cache_Controller.M_W.Load::total       138319                      
system.ruby.L1Cache_Controller.M_W.Store |        4026     21.93%     21.93% |        1532      8.35%     30.28% |       12025     65.50%     95.78% |         775      4.22%    100.00%
system.ruby.L1Cache_Controller.M_W.Store::total        18358                      
system.ruby.L1Cache_Controller.M_W.L1_Replacement |           8     34.78%     34.78% |           0      0.00%     34.78% |          15     65.22%    100.00% |           0      0.00%    100.00%
system.ruby.L1Cache_Controller.M_W.L1_Replacement::total           23                      
system.ruby.L1Cache_Controller.M_W.Fwd_GETX |           3     14.29%     14.29% |           6     28.57%     42.86% |          11     52.38%     95.24% |           1      4.76%    100.00%
system.ruby.L1Cache_Controller.M_W.Fwd_GETX::total           21                      
system.ruby.L1Cache_Controller.M_W.Fwd_GETS |          26     15.12%     15.12% |          21     12.21%     27.33% |          83     48.26%     75.58% |          42     24.42%    100.00%
system.ruby.L1Cache_Controller.M_W.Fwd_GETS::total          172                      
system.ruby.L1Cache_Controller.M_W.Use_Timeout |      105339     30.37%     30.37% |       11013      3.18%     33.55% |      223683     64.49%     98.03% |        6818      1.97%    100.00%
system.ruby.L1Cache_Controller.M_W.Use_Timeout::total       346853                      
system.ruby.L1Cache_Controller.MM.Load   |     7387336     26.91%     26.91% |      823707      3.00%     29.91% |    18858412     68.69%     98.60% |      385617      1.40%    100.00%
system.ruby.L1Cache_Controller.MM.Load::total     27455072                      
system.ruby.L1Cache_Controller.MM.Store  |     8897119     27.05%     27.05% |      829283      2.52%     29.57% |    22780014     69.25%     98.81% |      390171      1.19%    100.00%
system.ruby.L1Cache_Controller.MM.Store::total     32896587                      
system.ruby.L1Cache_Controller.MM.L1_Replacement |     1128635     23.31%     23.31% |       26228      0.54%     23.85% |     3675048     75.90%     99.75% |       12316      0.25%    100.00%
system.ruby.L1Cache_Controller.MM.L1_Replacement::total      4842227                      
system.ruby.L1Cache_Controller.MM.Fwd_GETX |         680     28.25%     28.25% |         525     21.81%     50.06% |         598     24.84%     74.91% |         604     25.09%    100.00%
system.ruby.L1Cache_Controller.MM.Fwd_GETX::total         2407                      
system.ruby.L1Cache_Controller.MM.Fwd_GETS |        3117     32.49%     32.49% |        2256     23.52%     56.01% |        1975     20.59%     76.60% |        2245     23.40%    100.00%
system.ruby.L1Cache_Controller.MM.Fwd_GETS::total         9593                      
system.ruby.L1Cache_Controller.MM.Fwd_DMA |          33      7.60%      7.60% |         191     44.01%     51.61% |         119     27.42%     79.03% |          91     20.97%    100.00%
system.ruby.L1Cache_Controller.MM.Fwd_DMA::total          434                      
system.ruby.L1Cache_Controller.MM_W.Load |       19594     27.39%     27.39% |        3961      5.54%     32.92% |       46729     65.31%     98.23% |        1265      1.77%    100.00%
system.ruby.L1Cache_Controller.MM_W.Load::total        71549                      
system.ruby.L1Cache_Controller.MM_W.Store |     1161757     26.00%     26.00% |       85140      1.91%     27.90% |     3169916     70.94%     98.84% |       51659      1.16%    100.00%
system.ruby.L1Cache_Controller.MM_W.Store::total      4468472                      
system.ruby.L1Cache_Controller.MM_W.L1_Replacement |         276     41.75%     41.75% |           0      0.00%     41.75% |         385     58.25%    100.00% |           0      0.00%    100.00%
system.ruby.L1Cache_Controller.MM_W.L1_Replacement::total          661                      
system.ruby.L1Cache_Controller.MM_W.Fwd_GETX |           3     50.00%     50.00% |           0      0.00%     50.00% |           3     50.00%    100.00% |           0      0.00%    100.00%
system.ruby.L1Cache_Controller.MM_W.Fwd_GETX::total            6                      
system.ruby.L1Cache_Controller.MM_W.Fwd_GETS |         137     35.40%     35.40% |          39     10.08%     45.48% |         122     31.52%     77.00% |          89     23.00%    100.00%
system.ruby.L1Cache_Controller.MM_W.Fwd_GETS::total          387                      
system.ruby.L1Cache_Controller.MM_W.Use_Timeout |     1088799     23.24%     23.24% |       24511      0.52%     23.76% |     3559077     75.97%     99.73% |       12757      0.27%    100.00%
system.ruby.L1Cache_Controller.MM_W.Use_Timeout::total      4685144                      
system.ruby.L1Cache_Controller.IM.Ack    |        2401     35.40%     35.40% |        1633     24.07%     59.47% |        1274     18.78%     78.25% |        1475     21.75%    100.00%
system.ruby.L1Cache_Controller.IM.Ack::total         6783                      
system.ruby.L1Cache_Controller.IM.Exclusive_Data |     1050181     28.45%     28.45% |       13818      0.37%     28.82% |     2617408     70.91%     99.73% |        9897      0.27%    100.00%
system.ruby.L1Cache_Controller.IM.Exclusive_Data::total      3691304                      
system.ruby.L1Cache_Controller.SM.Ack    |        2544     52.15%     52.15% |         546     11.19%     63.35% |         843     17.28%     80.63% |         945     19.37%    100.00%
system.ruby.L1Cache_Controller.SM.Ack::total         4878                      
system.ruby.L1Cache_Controller.SM.Exclusive_Data |       34565      3.54%      3.54% |        9149      0.94%      4.48% |      929605     95.31%     99.79% |        2054      0.21%    100.00%
system.ruby.L1Cache_Controller.SM.Exclusive_Data::total       975373                      
system.ruby.L1Cache_Controller.OM.Own_GETX |          27     24.77%     24.77% |          12     11.01%     35.78% |          39     35.78%     71.56% |          31     28.44%    100.00%
system.ruby.L1Cache_Controller.OM.Own_GETX::total          109                      
system.ruby.L1Cache_Controller.OM.Ack    |        1816     43.90%     43.90% |         702     16.97%     60.87% |         868     20.98%     81.85% |         751     18.15%    100.00%
system.ruby.L1Cache_Controller.OM.Ack::total         4137                      
system.ruby.L1Cache_Controller.OM.All_acks |     1084773     23.24%     23.24% |       22979      0.49%     23.74% |     3547052     76.01%     99.74% |       11982      0.26%    100.00%
system.ruby.L1Cache_Controller.OM.All_acks::total      4666786                      
system.ruby.L1Cache_Controller.IS.Data   |     2336702     24.82%     24.82% |       81644      0.87%     25.69% |     6948089     73.81%     99.49% |       47571      0.51%    100.00%
system.ruby.L1Cache_Controller.IS.Data::total      9414006                      
system.ruby.L1Cache_Controller.IS.Exclusive_Data |      109365     29.95%     29.95% |       12545      3.44%     33.38% |      235708     64.54%     97.92% |        7593      2.08%    100.00%
system.ruby.L1Cache_Controller.IS.Exclusive_Data::total       365211                      
system.ruby.L1Cache_Controller.SI.Load   |        2520     86.21%     86.21% |          16      0.55%     86.76% |         387     13.24%    100.00% |           0      0.00%    100.00%
system.ruby.L1Cache_Controller.SI.Load::total         2923                      
system.ruby.L1Cache_Controller.SI.Ifetch |           0      0.00%      0.00% |           8    100.00%    100.00% |           0      0.00%    100.00% |           0      0.00%    100.00%
system.ruby.L1Cache_Controller.SI.Ifetch::total            8                      
system.ruby.L1Cache_Controller.SI.Inv    |           0      0.00%      0.00% |           2    100.00%    100.00% |           0      0.00%    100.00% |           0      0.00%    100.00%
system.ruby.L1Cache_Controller.SI.Inv::total            2                      
system.ruby.L1Cache_Controller.SI.Writeback_Ack |     1353389     30.23%     30.23% |       54255      1.21%     31.44% |     3036002     67.82%     99.26% |       33066      0.74%    100.00%
system.ruby.L1Cache_Controller.SI.Writeback_Ack::total      4476712                      
system.ruby.L1Cache_Controller.SI.Writeback_Ack_Data |      947640     23.96%     23.96% |       16470      0.42%     24.38% |     2981187     75.38%     99.76% |        9381      0.24%    100.00%
system.ruby.L1Cache_Controller.SI.Writeback_Ack_Data::total      3954678                      
system.ruby.L1Cache_Controller.OI.Writeback_Ack_Data |         116     16.29%     16.29% |         242     33.99%     50.28% |         142     19.94%     70.22% |         212     29.78%    100.00%
system.ruby.L1Cache_Controller.OI.Writeback_Ack_Data::total          712                      
system.ruby.L1Cache_Controller.MI.Load   |           4     44.44%     44.44% |           0      0.00%     44.44% |           4     44.44%     88.89% |           1     11.11%    100.00%
system.ruby.L1Cache_Controller.MI.Load::total            9                      
system.ruby.L1Cache_Controller.MI.Store  |           0      0.00%      0.00% |           0      0.00%      0.00% |           3    100.00%    100.00% |           0      0.00%    100.00%
system.ruby.L1Cache_Controller.MI.Store::total            3                      
system.ruby.L1Cache_Controller.MI.Writeback_Ack_Data |     1189451     23.73%     23.73% |       29768      0.59%     24.32% |     3779135     75.39%     99.71% |       14488      0.29%    100.00%
system.ruby.L1Cache_Controller.MI.Writeback_Ack_Data::total      5012842                      
system.ruby.L1Cache_Controller.II.Writeback_Nack |           0      0.00%      0.00% |           2    100.00%    100.00% |           0      0.00%    100.00% |           0      0.00%    100.00%
system.ruby.L1Cache_Controller.II.Writeback_Nack::total            2                      
system.ruby.L2Cache_Controller.L1_GETS        9779800      0.00%      0.00%
system.ruby.L2Cache_Controller.L1_GETX        4666791      0.00%      0.00%
system.ruby.L2Cache_Controller.L1_PUTO            712      0.00%      0.00%
system.ruby.L2Cache_Controller.L1_PUTX        5012842      0.00%      0.00%
system.ruby.L2Cache_Controller.L1_PUTS_only      8141241      0.00%      0.00%
system.ruby.L2Cache_Controller.L1_PUTS         290186      0.00%      0.00%
system.ruby.L2Cache_Controller.Fwd_GETX            55      0.00%      0.00%
system.ruby.L2Cache_Controller.Fwd_DMA            622      0.00%      0.00%
system.ruby.L2Cache_Controller.Inv                 32      0.00%      0.00%
system.ruby.L2Cache_Controller.All_Acks       4358138      0.00%      0.00%
system.ruby.L2Cache_Controller.Data           9231854      0.00%      0.00%
system.ruby.L2Cache_Controller.L1_WBCLEANDATA      3954678      0.00%      0.00%
system.ruby.L2Cache_Controller.L1_WBDIRTYDATA      5013554      0.00%      0.00%
system.ruby.L2Cache_Controller.Writeback_Ack      4361395      0.00%      0.00%
system.ruby.L2Cache_Controller.Unblock       13890718      0.00%      0.00%
system.ruby.L2Cache_Controller.Exclusive_Unblock      5031997      0.00%      0.00%
system.ruby.L2Cache_Controller.DmaAck             434      0.00%      0.00%
system.ruby.L2Cache_Controller.L2_Replacement      8271311      0.00%      0.00%
system.ruby.L2Cache_Controller.NP.L1_GETS      4873716      0.00%      0.00%
system.ruby.L2Cache_Controller.NP.L1_GETX      3364519      0.00%      0.00%
system.ruby.L2Cache_Controller.NP.Inv              28      0.00%      0.00%
system.ruby.L2Cache_Controller.ILS.L1_GETS        22734      0.00%      0.00%
system.ruby.L2Cache_Controller.ILS.L1_GETX       953189      0.00%      0.00%
system.ruby.L2Cache_Controller.ILS.L1_PUTS_only      3928014      0.00%      0.00%
system.ruby.L2Cache_Controller.ILS.L1_PUTS        26664      0.00%      0.00%
system.ruby.L2Cache_Controller.ILX.L1_GETS        15759      0.00%      0.00%
system.ruby.L2Cache_Controller.ILX.L1_GETX         3418      0.00%      0.00%
system.ruby.L2Cache_Controller.ILX.L1_PUTX      5012842      0.00%      0.00%
system.ruby.L2Cache_Controller.ILX.L1_PUTS            2      0.00%      0.00%
system.ruby.L2Cache_Controller.ILX.Fwd_DMA          434      0.00%      0.00%
system.ruby.L2Cache_Controller.ILOX.L1_GETS        26143      0.00%      0.00%
system.ruby.L2Cache_Controller.ILOX.L1_GETX          401      0.00%      0.00%
system.ruby.L2Cache_Controller.ILOX.L1_PUTO          378      0.00%      0.00%
system.ruby.L2Cache_Controller.ILOSX.L1_GETS         6331      0.00%      0.00%
system.ruby.L2Cache_Controller.ILOSX.L1_GETX         5135      0.00%      0.00%
system.ruby.L2Cache_Controller.ILOSX.L1_PUTO          334      0.00%      0.00%
system.ruby.L2Cache_Controller.ILOSX.L1_PUTS_only        26928      0.00%      0.00%
system.ruby.L2Cache_Controller.ILOSX.L1_PUTS         4773      0.00%      0.00%
system.ruby.L2Cache_Controller.S.L1_GETS      4213910      0.00%      0.00%
system.ruby.L2Cache_Controller.S.L1_GETX        20508      0.00%      0.00%
system.ruby.L2Cache_Controller.S.Inv                4      0.00%      0.00%
system.ruby.L2Cache_Controller.S.L2_Replacement      3875704      0.00%      0.00%
system.ruby.L2Cache_Controller.OLSX.L1_GETS         4771      0.00%      0.00%
system.ruby.L2Cache_Controller.OLSX.L1_GETX           80      0.00%      0.00%
system.ruby.L2Cache_Controller.OLSX.L1_PUTS_only          148      0.00%      0.00%
system.ruby.L2Cache_Controller.OLSX.L1_PUTS         4696      0.00%      0.00%
system.ruby.L2Cache_Controller.OLSX.L2_Replacement          130      0.00%      0.00%
system.ruby.L2Cache_Controller.SLS.L1_GETS       260235      0.00%      0.00%
system.ruby.L2Cache_Controller.SLS.L1_GETX        19922      0.00%      0.00%
system.ruby.L2Cache_Controller.SLS.L1_PUTS_only      4186151      0.00%      0.00%
system.ruby.L2Cache_Controller.SLS.L1_PUTS       254016      0.00%      0.00%
system.ruby.L2Cache_Controller.SLS.L2_Replacement        34202      0.00%      0.00%
system.ruby.L2Cache_Controller.M.L1_GETS       355618      0.00%      0.00%
system.ruby.L2Cache_Controller.M.L1_GETX       299614      0.00%      0.00%
system.ruby.L2Cache_Controller.M.Fwd_GETX           55      0.00%      0.00%
system.ruby.L2Cache_Controller.M.Fwd_DMA          188      0.00%      0.00%
system.ruby.L2Cache_Controller.M.L2_Replacement      4361265      0.00%      0.00%
system.ruby.L2Cache_Controller.ILOXW.L1_WBDIRTYDATA          378      0.00%      0.00%
system.ruby.L2Cache_Controller.ILOXW.Unblock        26928      0.00%      0.00%
system.ruby.L2Cache_Controller.ILOSXW.L1_WBDIRTYDATA          334      0.00%      0.00%
system.ruby.L2Cache_Controller.ILOSXW.Unblock         4773      0.00%      0.00%
system.ruby.L2Cache_Controller.SLSW.L1_GETS           10      0.00%      0.00%
system.ruby.L2Cache_Controller.SLSW.Unblock       254016      0.00%      0.00%
system.ruby.L2Cache_Controller.ILSW.L1_GETS            2      0.00%      0.00%
system.ruby.L2Cache_Controller.ILSW.L1_PUTS            1      0.00%      0.00%
system.ruby.L2Cache_Controller.ILSW.L1_WBCLEANDATA        26664      0.00%      0.00%
system.ruby.L2Cache_Controller.IW.L1_WBCLEANDATA      3928014      0.00%      0.00%
system.ruby.L2Cache_Controller.SW.L1_GETS          352      0.00%      0.00%
system.ruby.L2Cache_Controller.SW.Unblock      4186151      0.00%      0.00%
system.ruby.L2Cache_Controller.SW.L2_Replacement           10      0.00%      0.00%
system.ruby.L2Cache_Controller.OXW.Unblock          148      0.00%      0.00%
system.ruby.L2Cache_Controller.OLSXW.Unblock         4696      0.00%      0.00%
system.ruby.L2Cache_Controller.ILXW.L1_WBDIRTYDATA      5012842      0.00%      0.00%
system.ruby.L2Cache_Controller.IFLS.L1_GETS            3      0.00%      0.00%
system.ruby.L2Cache_Controller.IFLS.Unblock        22734      0.00%      0.00%
system.ruby.L2Cache_Controller.IFLOX.Unblock        26143      0.00%      0.00%
system.ruby.L2Cache_Controller.IFLOX.Exclusive_Unblock           80      0.00%      0.00%
system.ruby.L2Cache_Controller.IFLOXX.L1_GETS           83      0.00%      0.00%
system.ruby.L2Cache_Controller.IFLOXX.L1_GETX            5      0.00%      0.00%
system.ruby.L2Cache_Controller.IFLOXX.Unblock         6166      0.00%      0.00%
system.ruby.L2Cache_Controller.IFLOXX.Exclusive_Unblock        13412      0.00%      0.00%
system.ruby.L2Cache_Controller.IFLOSX.Unblock         6331      0.00%      0.00%
system.ruby.L2Cache_Controller.IFLXO.L1_GETS           80      0.00%      0.00%
system.ruby.L2Cache_Controller.IFLXO.Exclusive_Unblock         5135      0.00%      0.00%
system.ruby.L2Cache_Controller.IGS.L1_GETS           51      0.00%      0.00%
system.ruby.L2Cache_Controller.IGS.Data       4873716      0.00%      0.00%
system.ruby.L2Cache_Controller.IGS.Unblock      4873716      0.00%      0.00%
system.ruby.L2Cache_Controller.IGM.Data       3385027      0.00%      0.00%
system.ruby.L2Cache_Controller.IGMLS.L1_PUTS           28      0.00%      0.00%
system.ruby.L2Cache_Controller.IGMLS.Data       973111      0.00%      0.00%
system.ruby.L2Cache_Controller.IGMO.L1_PUTS            6      0.00%      0.00%
system.ruby.L2Cache_Controller.IGMO.All_Acks      4358138      0.00%      0.00%
system.ruby.L2Cache_Controller.IGMO.Exclusive_Unblock      4358138      0.00%      0.00%
system.ruby.L2Cache_Controller.MM.Exclusive_Unblock       299614      0.00%      0.00%
system.ruby.L2Cache_Controller.SS.Unblock      4213910      0.00%      0.00%
system.ruby.L2Cache_Controller.OO.Exclusive_Unblock       355618      0.00%      0.00%
system.ruby.L2Cache_Controller.OLSXS.Unblock         4771      0.00%      0.00%
system.ruby.L2Cache_Controller.SLSS.L1_GETS            2      0.00%      0.00%
system.ruby.L2Cache_Controller.SLSS.Unblock       260235      0.00%      0.00%
system.ruby.L2Cache_Controller.MI.Writeback_Ack      4361265      0.00%      0.00%
system.ruby.L2Cache_Controller.OLSI.Writeback_Ack          130      0.00%      0.00%
system.ruby.L2Cache_Controller.ILXD.DmaAck          434      0.00%      0.00%

---------- End Simulation Statistics   ----------
