
---------- Begin Simulation Statistics ----------
sim_seconds                                  1.128876                       # Number of seconds simulated
sim_ticks                                1128875514500                       # Number of ticks simulated
final_tick                               53552116324501                       # Number of ticks from beginning of simulation (restored from checkpoints and never reset)
sim_freq                                 1000000000000                       # Frequency of simulated ticks
host_inst_rate                                 124389                       # Simulator instruction rate (inst/s)
host_op_rate                                   166394                       # Simulator op (including micro ops) rate (op/s)
host_tick_rate                              259386512                       # Simulator tick rate (ticks/s)
host_mem_usage                                1796852                       # Number of bytes of host memory used
host_seconds                                  4352.10                       # Real time elapsed on the host
sim_insts                                   541351461                       # Number of instructions simulated
sim_ops                                     724161524                       # Number of ops (including micro ops) simulated
system.voltage_domain.voltage                       1                       # Voltage in Volts
system.clk_domain.clock                          1000                       # Clock period in ticks
system.mem_ctrls.bytes_read::ruby.dir_cntrl0    164820032                       # Number of bytes read from this memory
system.mem_ctrls.bytes_read::total          164820032                       # Number of bytes read from this memory
system.mem_ctrls.bytes_written::ruby.dir_cntrl0     94795776                       # Number of bytes written to this memory
system.mem_ctrls.bytes_written::total        94795776                       # Number of bytes written to this memory
system.mem_ctrls.num_reads::ruby.dir_cntrl0      2575313                       # Number of read requests responded to by this memory
system.mem_ctrls.num_reads::total             2575313                       # Number of read requests responded to by this memory
system.mem_ctrls.num_writes::ruby.dir_cntrl0      1481184                       # Number of write requests responded to by this memory
system.mem_ctrls.num_writes::total            1481184                       # Number of write requests responded to by this memory
system.mem_ctrls.bw_read::ruby.dir_cntrl0    146003727                       # Total read bandwidth from this memory (bytes/s)
system.mem_ctrls.bw_read::total             146003727                       # Total read bandwidth from this memory (bytes/s)
system.mem_ctrls.bw_write::ruby.dir_cntrl0     83973631                       # Write bandwidth from this memory (bytes/s)
system.mem_ctrls.bw_write::total             83973631                       # Write bandwidth from this memory (bytes/s)
system.mem_ctrls.bw_total::ruby.dir_cntrl0    229977358                       # Total bandwidth to/from this memory (bytes/s)
system.mem_ctrls.bw_total::total            229977358                       # Total bandwidth to/from this memory (bytes/s)
system.mem_ctrls.readReqs                     2575313                       # Number of read requests accepted
system.mem_ctrls.writeReqs                    1481184                       # Number of write requests accepted
system.mem_ctrls.readBursts                   2575313                       # Number of DRAM read bursts, including those serviced by the write queue
system.mem_ctrls.writeBursts                  1481184                       # Number of DRAM write bursts, including those merged in the write queue
system.mem_ctrls.bytesReadDRAM              164741184                       # Total number of bytes read from DRAM
system.mem_ctrls.bytesReadWrQ                   78848                       # Total number of bytes read from write queue
system.mem_ctrls.bytesWritten                94794688                       # Total number of bytes written to DRAM
system.mem_ctrls.bytesReadSys               164820032                       # Total read bytes from the system interface side
system.mem_ctrls.bytesWrittenSys             94795776                       # Total written bytes from the system interface side
system.mem_ctrls.servicedByWrQ                   1232                       # Number of DRAM read bursts serviced by the write queue
system.mem_ctrls.mergedWrBursts                     0                       # Number of DRAM write bursts merged with an existing one
system.mem_ctrls.neitherReadNorWriteReqs            0                       # Number of requests that are neither read nor write
system.mem_ctrls.perBankRdBursts::0            161341                       # Per bank write bursts
system.mem_ctrls.perBankRdBursts::1            161571                       # Per bank write bursts
system.mem_ctrls.perBankRdBursts::2            160761                       # Per bank write bursts
system.mem_ctrls.perBankRdBursts::3            161020                       # Per bank write bursts
system.mem_ctrls.perBankRdBursts::4            159648                       # Per bank write bursts
system.mem_ctrls.perBankRdBursts::5            159876                       # Per bank write bursts
system.mem_ctrls.perBankRdBursts::6            160445                       # Per bank write bursts
system.mem_ctrls.perBankRdBursts::7            160430                       # Per bank write bursts
system.mem_ctrls.perBankRdBursts::8            160684                       # Per bank write bursts
system.mem_ctrls.perBankRdBursts::9            160860                       # Per bank write bursts
system.mem_ctrls.perBankRdBursts::10           160920                       # Per bank write bursts
system.mem_ctrls.perBankRdBursts::11           160937                       # Per bank write bursts
system.mem_ctrls.perBankRdBursts::12           162140                       # Per bank write bursts
system.mem_ctrls.perBankRdBursts::13           161989                       # Per bank write bursts
system.mem_ctrls.perBankRdBursts::14           160499                       # Per bank write bursts
system.mem_ctrls.perBankRdBursts::15           160960                       # Per bank write bursts
system.mem_ctrls.perBankWrBursts::0             92762                       # Per bank write bursts
system.mem_ctrls.perBankWrBursts::1             93085                       # Per bank write bursts
system.mem_ctrls.perBankWrBursts::2             92689                       # Per bank write bursts
system.mem_ctrls.perBankWrBursts::3             92862                       # Per bank write bursts
system.mem_ctrls.perBankWrBursts::4             91668                       # Per bank write bursts
system.mem_ctrls.perBankWrBursts::5             92046                       # Per bank write bursts
system.mem_ctrls.perBankWrBursts::6             92280                       # Per bank write bursts
system.mem_ctrls.perBankWrBursts::7             92212                       # Per bank write bursts
system.mem_ctrls.perBankWrBursts::8             92583                       # Per bank write bursts
system.mem_ctrls.perBankWrBursts::9             92670                       # Per bank write bursts
system.mem_ctrls.perBankWrBursts::10            92779                       # Per bank write bursts
system.mem_ctrls.perBankWrBursts::11            92830                       # Per bank write bursts
system.mem_ctrls.perBankWrBursts::12            93416                       # Per bank write bursts
system.mem_ctrls.perBankWrBursts::13            93313                       # Per bank write bursts
system.mem_ctrls.perBankWrBursts::14            91602                       # Per bank write bursts
system.mem_ctrls.perBankWrBursts::15            92370                       # Per bank write bursts
system.mem_ctrls.numRdRetry                         0                       # Number of times read queue was full causing retry
system.mem_ctrls.numWrRetry                         0                       # Number of times write queue was full causing retry
system.mem_ctrls.totGap                  1128875354000                       # Total gap between requests
system.mem_ctrls.readPktSize::0                     0                       # Read request sizes (log2)
system.mem_ctrls.readPktSize::1                     0                       # Read request sizes (log2)
system.mem_ctrls.readPktSize::2                     0                       # Read request sizes (log2)
system.mem_ctrls.readPktSize::3                     0                       # Read request sizes (log2)
system.mem_ctrls.readPktSize::4                     0                       # Read request sizes (log2)
system.mem_ctrls.readPktSize::5                     0                       # Read request sizes (log2)
system.mem_ctrls.readPktSize::6               2575313                       # Read request sizes (log2)
system.mem_ctrls.writePktSize::0                    0                       # Write request sizes (log2)
system.mem_ctrls.writePktSize::1                    0                       # Write request sizes (log2)
system.mem_ctrls.writePktSize::2                    0                       # Write request sizes (log2)
system.mem_ctrls.writePktSize::3                    0                       # Write request sizes (log2)
system.mem_ctrls.writePktSize::4                    0                       # Write request sizes (log2)
system.mem_ctrls.writePktSize::5                    0                       # Write request sizes (log2)
system.mem_ctrls.writePktSize::6              1481184                       # Write request sizes (log2)
system.mem_ctrls.rdQLenPdf::0                 2573784                       # What read queue length does an incoming req see
system.mem_ctrls.rdQLenPdf::1                     297                       # What read queue length does an incoming req see
system.mem_ctrls.rdQLenPdf::2                       0                       # What read queue length does an incoming req see
system.mem_ctrls.rdQLenPdf::3                       0                       # What read queue length does an incoming req see
system.mem_ctrls.rdQLenPdf::4                       0                       # What read queue length does an incoming req see
system.mem_ctrls.rdQLenPdf::5                       0                       # What read queue length does an incoming req see
system.mem_ctrls.rdQLenPdf::6                       0                       # What read queue length does an incoming req see
system.mem_ctrls.rdQLenPdf::7                       0                       # What read queue length does an incoming req see
system.mem_ctrls.rdQLenPdf::8                       0                       # What read queue length does an incoming req see
system.mem_ctrls.rdQLenPdf::9                       0                       # What read queue length does an incoming req see
system.mem_ctrls.rdQLenPdf::10                      0                       # What read queue length does an incoming req see
system.mem_ctrls.rdQLenPdf::11                      0                       # What read queue length does an incoming req see
system.mem_ctrls.rdQLenPdf::12                      0                       # What read queue length does an incoming req see
system.mem_ctrls.rdQLenPdf::13                      0                       # What read queue length does an incoming req see
system.mem_ctrls.rdQLenPdf::14                      0                       # What read queue length does an incoming req see
system.mem_ctrls.rdQLenPdf::15                      0                       # What read queue length does an incoming req see
system.mem_ctrls.rdQLenPdf::16                      0                       # What read queue length does an incoming req see
system.mem_ctrls.rdQLenPdf::17                      0                       # What read queue length does an incoming req see
system.mem_ctrls.rdQLenPdf::18                      0                       # What read queue length does an incoming req see
system.mem_ctrls.rdQLenPdf::19                      0                       # What read queue length does an incoming req see
system.mem_ctrls.rdQLenPdf::20                      0                       # What read queue length does an incoming req see
system.mem_ctrls.rdQLenPdf::21                      0                       # What read queue length does an incoming req see
system.mem_ctrls.rdQLenPdf::22                      0                       # What read queue length does an incoming req see
system.mem_ctrls.rdQLenPdf::23                      0                       # What read queue length does an incoming req see
system.mem_ctrls.rdQLenPdf::24                      0                       # What read queue length does an incoming req see
system.mem_ctrls.rdQLenPdf::25                      0                       # What read queue length does an incoming req see
system.mem_ctrls.rdQLenPdf::26                      0                       # What read queue length does an incoming req see
system.mem_ctrls.rdQLenPdf::27                      0                       # What read queue length does an incoming req see
system.mem_ctrls.rdQLenPdf::28                      0                       # What read queue length does an incoming req see
system.mem_ctrls.rdQLenPdf::29                      0                       # What read queue length does an incoming req see
system.mem_ctrls.rdQLenPdf::30                      0                       # What read queue length does an incoming req see
system.mem_ctrls.rdQLenPdf::31                      0                       # What read queue length does an incoming req see
system.mem_ctrls.wrQLenPdf::0                       1                       # What write queue length does an incoming req see
system.mem_ctrls.wrQLenPdf::1                       1                       # What write queue length does an incoming req see
system.mem_ctrls.wrQLenPdf::2                       1                       # What write queue length does an incoming req see
system.mem_ctrls.wrQLenPdf::3                       1                       # What write queue length does an incoming req see
system.mem_ctrls.wrQLenPdf::4                       1                       # What write queue length does an incoming req see
system.mem_ctrls.wrQLenPdf::5                       1                       # What write queue length does an incoming req see
system.mem_ctrls.wrQLenPdf::6                       1                       # What write queue length does an incoming req see
system.mem_ctrls.wrQLenPdf::7                       1                       # What write queue length does an incoming req see
system.mem_ctrls.wrQLenPdf::8                       1                       # What write queue length does an incoming req see
system.mem_ctrls.wrQLenPdf::9                       1                       # What write queue length does an incoming req see
system.mem_ctrls.wrQLenPdf::10                      1                       # What write queue length does an incoming req see
system.mem_ctrls.wrQLenPdf::11                      1                       # What write queue length does an incoming req see
system.mem_ctrls.wrQLenPdf::12                      1                       # What write queue length does an incoming req see
system.mem_ctrls.wrQLenPdf::13                      1                       # What write queue length does an incoming req see
system.mem_ctrls.wrQLenPdf::14                      1                       # What write queue length does an incoming req see
system.mem_ctrls.wrQLenPdf::15                  34086                       # What write queue length does an incoming req see
system.mem_ctrls.wrQLenPdf::16                  36798                       # What write queue length does an incoming req see
system.mem_ctrls.wrQLenPdf::17                  68171                       # What write queue length does an incoming req see
system.mem_ctrls.wrQLenPdf::18                  86092                       # What write queue length does an incoming req see
system.mem_ctrls.wrQLenPdf::19                  89586                       # What write queue length does an incoming req see
system.mem_ctrls.wrQLenPdf::20                  90189                       # What write queue length does an incoming req see
system.mem_ctrls.wrQLenPdf::21                  90008                       # What write queue length does an incoming req see
system.mem_ctrls.wrQLenPdf::22                  90242                       # What write queue length does an incoming req see
system.mem_ctrls.wrQLenPdf::23                  90291                       # What write queue length does an incoming req see
system.mem_ctrls.wrQLenPdf::24                  90803                       # What write queue length does an incoming req see
system.mem_ctrls.wrQLenPdf::25                  89960                       # What write queue length does an incoming req see
system.mem_ctrls.wrQLenPdf::26                  90719                       # What write queue length does an incoming req see
system.mem_ctrls.wrQLenPdf::27                  90250                       # What write queue length does an incoming req see
system.mem_ctrls.wrQLenPdf::28                  89951                       # What write queue length does an incoming req see
system.mem_ctrls.wrQLenPdf::29                  89210                       # What write queue length does an incoming req see
system.mem_ctrls.wrQLenPdf::30                  88144                       # What write queue length does an incoming req see
system.mem_ctrls.wrQLenPdf::31                  87762                       # What write queue length does an incoming req see
system.mem_ctrls.wrQLenPdf::32                  88512                       # What write queue length does an incoming req see
system.mem_ctrls.wrQLenPdf::33                    284                       # What write queue length does an incoming req see
system.mem_ctrls.wrQLenPdf::34                     65                       # What write queue length does an incoming req see
system.mem_ctrls.wrQLenPdf::35                     18                       # What write queue length does an incoming req see
system.mem_ctrls.wrQLenPdf::36                      8                       # What write queue length does an incoming req see
system.mem_ctrls.wrQLenPdf::37                      6                       # What write queue length does an incoming req see
system.mem_ctrls.wrQLenPdf::38                      4                       # What write queue length does an incoming req see
system.mem_ctrls.wrQLenPdf::39                      3                       # What write queue length does an incoming req see
system.mem_ctrls.wrQLenPdf::40                      2                       # What write queue length does an incoming req see
system.mem_ctrls.wrQLenPdf::41                      2                       # What write queue length does an incoming req see
system.mem_ctrls.wrQLenPdf::42                      1                       # What write queue length does an incoming req see
system.mem_ctrls.wrQLenPdf::43                      1                       # What write queue length does an incoming req see
system.mem_ctrls.wrQLenPdf::44                      1                       # What write queue length does an incoming req see
system.mem_ctrls.wrQLenPdf::45                      0                       # What write queue length does an incoming req see
system.mem_ctrls.wrQLenPdf::46                      0                       # What write queue length does an incoming req see
system.mem_ctrls.wrQLenPdf::47                      0                       # What write queue length does an incoming req see
system.mem_ctrls.wrQLenPdf::48                      0                       # What write queue length does an incoming req see
system.mem_ctrls.wrQLenPdf::49                      0                       # What write queue length does an incoming req see
system.mem_ctrls.wrQLenPdf::50                      0                       # What write queue length does an incoming req see
system.mem_ctrls.wrQLenPdf::51                      0                       # What write queue length does an incoming req see
system.mem_ctrls.wrQLenPdf::52                      0                       # What write queue length does an incoming req see
system.mem_ctrls.wrQLenPdf::53                      0                       # What write queue length does an incoming req see
system.mem_ctrls.wrQLenPdf::54                      0                       # What write queue length does an incoming req see
system.mem_ctrls.wrQLenPdf::55                      0                       # What write queue length does an incoming req see
system.mem_ctrls.wrQLenPdf::56                      0                       # What write queue length does an incoming req see
system.mem_ctrls.wrQLenPdf::57                      0                       # What write queue length does an incoming req see
system.mem_ctrls.wrQLenPdf::58                      0                       # What write queue length does an incoming req see
system.mem_ctrls.wrQLenPdf::59                      0                       # What write queue length does an incoming req see
system.mem_ctrls.wrQLenPdf::60                      0                       # What write queue length does an incoming req see
system.mem_ctrls.wrQLenPdf::61                      0                       # What write queue length does an incoming req see
system.mem_ctrls.wrQLenPdf::62                      0                       # What write queue length does an incoming req see
system.mem_ctrls.wrQLenPdf::63                      0                       # What write queue length does an incoming req see
system.mem_ctrls.bytesPerActivate::samples      1804933                       # Bytes accessed per row activation
system.mem_ctrls.bytesPerActivate::mean    143.792382                       # Bytes accessed per row activation
system.mem_ctrls.bytesPerActivate::gmean    90.636298                       # Bytes accessed per row activation
system.mem_ctrls.bytesPerActivate::stdev   215.892867                       # Bytes accessed per row activation
system.mem_ctrls.bytesPerActivate::0-127      1417740     78.55%     78.55% # Bytes accessed per row activation
system.mem_ctrls.bytesPerActivate::128-255       153825      8.52%     87.07% # Bytes accessed per row activation
system.mem_ctrls.bytesPerActivate::256-383        60886      3.37%     90.44% # Bytes accessed per row activation
system.mem_ctrls.bytesPerActivate::384-511        37855      2.10%     92.54% # Bytes accessed per row activation
system.mem_ctrls.bytesPerActivate::512-639        27841      1.54%     94.08% # Bytes accessed per row activation
system.mem_ctrls.bytesPerActivate::640-767        19066      1.06%     95.14% # Bytes accessed per row activation
system.mem_ctrls.bytesPerActivate::768-895        14510      0.80%     95.94% # Bytes accessed per row activation
system.mem_ctrls.bytesPerActivate::896-1023        10407      0.58%     96.52% # Bytes accessed per row activation
system.mem_ctrls.bytesPerActivate::1024-1151        62803      3.48%    100.00% # Bytes accessed per row activation
system.mem_ctrls.bytesPerActivate::total      1804933                       # Bytes accessed per row activation
system.mem_ctrls.rdPerTurnAround::samples        87647                       # Reads before turning the bus around for writes
system.mem_ctrls.rdPerTurnAround::mean      29.656668                       # Reads before turning the bus around for writes
system.mem_ctrls.rdPerTurnAround::stdev    168.977415                       # Reads before turning the bus around for writes
system.mem_ctrls.rdPerTurnAround::0-2047        87643    100.00%    100.00% # Reads before turning the bus around for writes
system.mem_ctrls.rdPerTurnAround::2048-4095            2      0.00%    100.00% # Reads before turning the bus around for writes
system.mem_ctrls.rdPerTurnAround::4096-6143            1      0.00%    100.00% # Reads before turning the bus around for writes
system.mem_ctrls.rdPerTurnAround::47104-49151            1      0.00%    100.00% # Reads before turning the bus around for writes
system.mem_ctrls.rdPerTurnAround::total         87647                       # Reads before turning the bus around for writes
system.mem_ctrls.wrPerTurnAround::samples        87647                       # Writes before turning the bus around for reads
system.mem_ctrls.wrPerTurnAround::mean      16.899232                       # Writes before turning the bus around for reads
system.mem_ctrls.wrPerTurnAround::gmean     16.861834                       # Writes before turning the bus around for reads
system.mem_ctrls.wrPerTurnAround::stdev      1.150824                       # Writes before turning the bus around for reads
system.mem_ctrls.wrPerTurnAround::16            51005     58.19%     58.19% # Writes before turning the bus around for reads
system.mem_ctrls.wrPerTurnAround::17             1530      1.75%     59.94% # Writes before turning the bus around for reads
system.mem_ctrls.wrPerTurnAround::18            30322     34.60%     94.53% # Writes before turning the bus around for reads
system.mem_ctrls.wrPerTurnAround::19             3531      4.03%     98.56% # Writes before turning the bus around for reads
system.mem_ctrls.wrPerTurnAround::20              799      0.91%     99.48% # Writes before turning the bus around for reads
system.mem_ctrls.wrPerTurnAround::21              228      0.26%     99.74% # Writes before turning the bus around for reads
system.mem_ctrls.wrPerTurnAround::22              108      0.12%     99.86% # Writes before turning the bus around for reads
system.mem_ctrls.wrPerTurnAround::23               58      0.07%     99.92% # Writes before turning the bus around for reads
system.mem_ctrls.wrPerTurnAround::24               23      0.03%     99.95% # Writes before turning the bus around for reads
system.mem_ctrls.wrPerTurnAround::25               21      0.02%     99.97% # Writes before turning the bus around for reads
system.mem_ctrls.wrPerTurnAround::26                3      0.00%     99.98% # Writes before turning the bus around for reads
system.mem_ctrls.wrPerTurnAround::27               10      0.01%     99.99% # Writes before turning the bus around for reads
system.mem_ctrls.wrPerTurnAround::28                1      0.00%     99.99% # Writes before turning the bus around for reads
system.mem_ctrls.wrPerTurnAround::29                2      0.00%     99.99% # Writes before turning the bus around for reads
system.mem_ctrls.wrPerTurnAround::30                2      0.00%    100.00% # Writes before turning the bus around for reads
system.mem_ctrls.wrPerTurnAround::33                1      0.00%    100.00% # Writes before turning the bus around for reads
system.mem_ctrls.wrPerTurnAround::34                1      0.00%    100.00% # Writes before turning the bus around for reads
system.mem_ctrls.wrPerTurnAround::37                1      0.00%    100.00% # Writes before turning the bus around for reads
system.mem_ctrls.wrPerTurnAround::39                1      0.00%    100.00% # Writes before turning the bus around for reads
system.mem_ctrls.wrPerTurnAround::total         87647                       # Writes before turning the bus around for reads
system.mem_ctrls.totQLat                  42134731998                       # Total ticks spent queuing
system.mem_ctrls.totMemAccLat             90398750748                       # Total ticks spent from burst creation until serviced by the DRAM
system.mem_ctrls.totBusLat                12870405000                       # Total ticks spent in databus transfers
system.mem_ctrls.avgQLat                     16368.84                       # Average queueing delay per DRAM burst
system.mem_ctrls.avgBusLat                    5000.00                       # Average bus latency per DRAM burst
system.mem_ctrls.avgMemAccLat                35118.84                       # Average memory access latency per DRAM burst
system.mem_ctrls.avgRdBW                       145.93                       # Average DRAM read bandwidth in MiByte/s
system.mem_ctrls.avgWrBW                        83.97                       # Average achieved write bandwidth in MiByte/s
system.mem_ctrls.avgRdBWSys                    146.00                       # Average system read bandwidth in MiByte/s
system.mem_ctrls.avgWrBWSys                     83.97                       # Average system write bandwidth in MiByte/s
system.mem_ctrls.peakBW                      12800.00                       # Theoretical peak bandwidth in MiByte/s
system.mem_ctrls.busUtil                         1.80                       # Data bus utilization in percentage
system.mem_ctrls.busUtilRead                     1.14                       # Data bus utilization in percentage for reads
system.mem_ctrls.busUtilWrite                    0.66                       # Data bus utilization in percentage for writes
system.mem_ctrls.avgRdQLen                       1.00                       # Average read queue length when enqueuing
system.mem_ctrls.avgWrQLen                      24.68                       # Average write queue length when enqueuing
system.mem_ctrls.readRowHits                  1499873                       # Number of row buffer hits during reads
system.mem_ctrls.writeRowHits                  750436                       # Number of row buffer hits during writes
system.mem_ctrls.readRowHitRate                 58.27                       # Row buffer hit rate for reads
system.mem_ctrls.writeRowHitRate                50.66                       # Row buffer hit rate for writes
system.mem_ctrls.avgGap                     278288.23                       # Average gap between requests
system.mem_ctrls.pageHitRate                    55.49                       # Row buffer hit rate, read and write combined
system.mem_ctrls_0.actEnergy               6832939680                       # Energy for activate commands per rank (pJ)
system.mem_ctrls_0.preEnergy               3728290500                       # Energy for precharge commands per rank (pJ)
system.mem_ctrls_0.readEnergy             10121966400                       # Energy for read commands per rank (pJ)
system.mem_ctrls_0.writeEnergy             4792588560                       # Energy for write commands per rank (pJ)
system.mem_ctrls_0.refreshEnergy          74155676400                       # Energy for refresh commands per rank (pJ)
system.mem_ctrls_0.actBackEnergy         236830426605                       # Energy for active background per rank (pJ)
system.mem_ctrls_0.preBackEnergy         473465394000                       # Energy for precharge background per rank (pJ)
system.mem_ctrls_0.totalEnergy           809927282145                       # Total energy per rank (pJ)
system.mem_ctrls_0.averagePower            713.370889                       # Core power per rank (mW)
system.mem_ctrls_0.memoryStateTime::IDLE 781562881750                       # Time in different power states
system.mem_ctrls_0.memoryStateTime::REF   37695580000                       # Time in different power states
system.mem_ctrls_0.memoryStateTime::PRE_PDN            0                       # Time in different power states
system.mem_ctrls_0.memoryStateTime::ACT  309614284250                       # Time in different power states
system.mem_ctrls_0.memoryStateTime::ACT_PDN            0                       # Time in different power states
system.mem_ctrls_1.actEnergy               6849579240                       # Energy for activate commands per rank (pJ)
system.mem_ctrls_1.preEnergy               3737369625                       # Energy for precharge commands per rank (pJ)
system.mem_ctrls_1.readEnergy             10152589200                       # Energy for read commands per rank (pJ)
system.mem_ctrls_1.writeEnergy             4805269920                       # Energy for write commands per rank (pJ)
system.mem_ctrls_1.refreshEnergy          74155676400                       # Energy for refresh commands per rank (pJ)
system.mem_ctrls_1.actBackEnergy         237492872055                       # Energy for active background per rank (pJ)
system.mem_ctrls_1.preBackEnergy         472884301500                       # Energy for precharge background per rank (pJ)
system.mem_ctrls_1.totalEnergy           810077657940                       # Total energy per rank (pJ)
system.mem_ctrls_1.averagePower            713.503337                       # Core power per rank (mW)
system.mem_ctrls_1.memoryStateTime::IDLE 780972670750                       # Time in different power states
system.mem_ctrls_1.memoryStateTime::REF   37695580000                       # Time in different power states
system.mem_ctrls_1.memoryStateTime::PRE_PDN            0                       # Time in different power states
system.mem_ctrls_1.memoryStateTime::ACT  310205633000                       # Time in different power states
system.mem_ctrls_1.memoryStateTime::ACT_PDN            0                       # Time in different power states
system.cpu_voltage_domain.voltage                   1                       # Voltage in Volts
system.cpu_clk_domain.clock                       500                       # Clock period in ticks
system.cpu0.apic_clk_domain.clock                8000                       # Clock period in ticks
system.cpu0.numCycles                      2259682394                       # number of cpu cycles simulated
system.cpu0.numWorkItemsStarted                     0                       # number of work items this cpu started
system.cpu0.numWorkItemsCompleted                   0                       # number of work items this cpu completed
system.cpu0.kern.inst.arm                           0                       # number of arm instructions executed
system.cpu0.kern.inst.quiesce                       0                       # number of quiesce instructions executed
system.cpu0.committedInsts                  533999463                       # Number of instructions committed
system.cpu0.committedOps                    709498901                       # Number of ops (including micro ops) committed
system.cpu0.num_int_alu_accesses            509111919                       # Number of integer alu accesses
system.cpu0.num_fp_alu_accesses             331101068                       # Number of float alu accesses
system.cpu0.num_func_calls                     444791                       # number of times a function call or return occured
system.cpu0.num_conditional_control_insts     31483553                       # number of instructions that are conditional controls
system.cpu0.num_int_insts                   509111919                       # number of integer instructions
system.cpu0.num_fp_insts                    331101068                       # number of float instructions
system.cpu0.num_int_register_reads         1070742486                       # number of times the integer registers were read
system.cpu0.num_int_register_writes         340094510                       # number of times the integer registers were written
system.cpu0.num_fp_register_reads           564014582                       # number of times the floating registers were read
system.cpu0.num_fp_register_writes          276695748                       # number of times the floating registers were written
system.cpu0.num_cc_register_reads           220446877                       # number of times the CC registers were read
system.cpu0.num_cc_register_writes          241460219                       # number of times the CC registers were written
system.cpu0.num_mem_refs                    152907020                       # number of memory refs
system.cpu0.num_load_insts                   94803628                       # Number of load instructions
system.cpu0.num_store_insts                  58103392                       # Number of store instructions
system.cpu0.num_idle_cycles              8630022.133126                       # Number of idle cycles
system.cpu0.num_busy_cycles              2251052371.866874                       # Number of busy cycles
system.cpu0.not_idle_fraction                0.996181                       # Percentage of non-idle cycles
system.cpu0.idle_fraction                    0.003819                       # Percentage of idle cycles
system.cpu0.Branches                         33910280                       # Number of branches fetched
system.cpu0.op_class::No_OpClass               957058      0.13%      0.13% # Class of executed instruction
system.cpu0.op_class::IntAlu                444323502     62.62%     62.76% # Class of executed instruction
system.cpu0.op_class::IntMult                   24715      0.00%     62.76% # Class of executed instruction
system.cpu0.op_class::IntDiv                   145178      0.02%     62.78% # Class of executed instruction
system.cpu0.op_class::FloatAdd              111149730     15.67%     78.45% # Class of executed instruction
system.cpu0.op_class::FloatCmp                      0      0.00%     78.45% # Class of executed instruction
system.cpu0.op_class::FloatCvt                      0      0.00%     78.45% # Class of executed instruction
system.cpu0.op_class::FloatMult                     0      0.00%     78.45% # Class of executed instruction
system.cpu0.op_class::FloatDiv                      0      0.00%     78.45% # Class of executed instruction
system.cpu0.op_class::FloatSqrt                     0      0.00%     78.45% # Class of executed instruction
system.cpu0.op_class::SimdAdd                       0      0.00%     78.45% # Class of executed instruction
system.cpu0.op_class::SimdAddAcc                    0      0.00%     78.45% # Class of executed instruction
system.cpu0.op_class::SimdAlu                       0      0.00%     78.45% # Class of executed instruction
system.cpu0.op_class::SimdCmp                       0      0.00%     78.45% # Class of executed instruction
system.cpu0.op_class::SimdCvt                       0      0.00%     78.45% # Class of executed instruction
system.cpu0.op_class::SimdMisc                      0      0.00%     78.45% # Class of executed instruction
system.cpu0.op_class::SimdMult                      0      0.00%     78.45% # Class of executed instruction
system.cpu0.op_class::SimdMultAcc                   0      0.00%     78.45% # Class of executed instruction
system.cpu0.op_class::SimdShift                     0      0.00%     78.45% # Class of executed instruction
system.cpu0.op_class::SimdShiftAcc                  0      0.00%     78.45% # Class of executed instruction
system.cpu0.op_class::SimdSqrt                      0      0.00%     78.45% # Class of executed instruction
system.cpu0.op_class::SimdFloatAdd                  0      0.00%     78.45% # Class of executed instruction
system.cpu0.op_class::SimdFloatAlu                  0      0.00%     78.45% # Class of executed instruction
system.cpu0.op_class::SimdFloatCmp                  0      0.00%     78.45% # Class of executed instruction
system.cpu0.op_class::SimdFloatCvt                  0      0.00%     78.45% # Class of executed instruction
system.cpu0.op_class::SimdFloatDiv                  0      0.00%     78.45% # Class of executed instruction
system.cpu0.op_class::SimdFloatMisc                 0      0.00%     78.45% # Class of executed instruction
system.cpu0.op_class::SimdFloatMult                 0      0.00%     78.45% # Class of executed instruction
system.cpu0.op_class::SimdFloatMultAcc              0      0.00%     78.45% # Class of executed instruction
system.cpu0.op_class::SimdFloatSqrt                 0      0.00%     78.45% # Class of executed instruction
system.cpu0.op_class::MemRead                94803628     13.36%     91.81% # Class of executed instruction
system.cpu0.op_class::MemWrite               58103392      8.19%    100.00% # Class of executed instruction
system.cpu0.op_class::IprAccess                     0      0.00%    100.00% # Class of executed instruction
system.cpu0.op_class::InstPrefetch                  0      0.00%    100.00% # Class of executed instruction
system.cpu0.op_class::total                 709507203                       # Class of executed instruction
system.cpu1.apic_clk_domain.clock                8000                       # Clock period in ticks
system.cpu1.numCycles                      2255091679                       # number of cpu cycles simulated
system.cpu1.numWorkItemsStarted                     0                       # number of work items this cpu started
system.cpu1.numWorkItemsCompleted                   0                       # number of work items this cpu completed
system.cpu1.kern.inst.arm                           0                       # number of arm instructions executed
system.cpu1.kern.inst.quiesce                       0                       # number of quiesce instructions executed
system.cpu1.committedInsts                     737148                       # Number of instructions committed
system.cpu1.committedOps                      1595329                       # Number of ops (including micro ops) committed
system.cpu1.num_int_alu_accesses              1561458                       # Number of integer alu accesses
system.cpu1.num_fp_alu_accesses                     0                       # Number of float alu accesses
system.cpu1.num_func_calls                      44920                       # number of times a function call or return occured
system.cpu1.num_conditional_control_insts       109839                       # number of instructions that are conditional controls
system.cpu1.num_int_insts                     1561458                       # number of integer instructions
system.cpu1.num_fp_insts                            0                       # number of float instructions
system.cpu1.num_int_register_reads            3170404                       # number of times the integer registers were read
system.cpu1.num_int_register_writes           1293337                       # number of times the integer registers were written
system.cpu1.num_fp_register_reads                   0                       # number of times the floating registers were read
system.cpu1.num_fp_register_writes                  0                       # number of times the floating registers were written
system.cpu1.num_cc_register_reads              879663                       # number of times the CC registers were read
system.cpu1.num_cc_register_writes             468474                       # number of times the CC registers were written
system.cpu1.num_mem_refs                       383225                       # number of memory refs
system.cpu1.num_load_insts                     238586                       # Number of load instructions
system.cpu1.num_store_insts                    144639                       # Number of store instructions
system.cpu1.num_idle_cycles              2251933849.916353                       # Number of idle cycles
system.cpu1.num_busy_cycles              3157829.083647                       # Number of busy cycles
system.cpu1.not_idle_fraction                0.001400                       # Percentage of non-idle cycles
system.cpu1.idle_fraction                    0.998600                       # Percentage of idle cycles
system.cpu1.Branches                           169151                       # Number of branches fetched
system.cpu1.op_class::No_OpClass                28289      1.77%      1.77% # Class of executed instruction
system.cpu1.op_class::IntAlu                  1170767     73.39%     75.16% # Class of executed instruction
system.cpu1.op_class::IntMult                    3328      0.21%     75.37% # Class of executed instruction
system.cpu1.op_class::IntDiv                     9723      0.61%     75.98% # Class of executed instruction
system.cpu1.op_class::FloatAdd                      0      0.00%     75.98% # Class of executed instruction
system.cpu1.op_class::FloatCmp                      0      0.00%     75.98% # Class of executed instruction
system.cpu1.op_class::FloatCvt                      0      0.00%     75.98% # Class of executed instruction
system.cpu1.op_class::FloatMult                     0      0.00%     75.98% # Class of executed instruction
system.cpu1.op_class::FloatDiv                      0      0.00%     75.98% # Class of executed instruction
system.cpu1.op_class::FloatSqrt                     0      0.00%     75.98% # Class of executed instruction
system.cpu1.op_class::SimdAdd                       0      0.00%     75.98% # Class of executed instruction
system.cpu1.op_class::SimdAddAcc                    0      0.00%     75.98% # Class of executed instruction
system.cpu1.op_class::SimdAlu                       0      0.00%     75.98% # Class of executed instruction
system.cpu1.op_class::SimdCmp                       0      0.00%     75.98% # Class of executed instruction
system.cpu1.op_class::SimdCvt                       0      0.00%     75.98% # Class of executed instruction
system.cpu1.op_class::SimdMisc                      0      0.00%     75.98% # Class of executed instruction
system.cpu1.op_class::SimdMult                      0      0.00%     75.98% # Class of executed instruction
system.cpu1.op_class::SimdMultAcc                   0      0.00%     75.98% # Class of executed instruction
system.cpu1.op_class::SimdShift                     0      0.00%     75.98% # Class of executed instruction
system.cpu1.op_class::SimdShiftAcc                  0      0.00%     75.98% # Class of executed instruction
system.cpu1.op_class::SimdSqrt                      0      0.00%     75.98% # Class of executed instruction
system.cpu1.op_class::SimdFloatAdd                  0      0.00%     75.98% # Class of executed instruction
system.cpu1.op_class::SimdFloatAlu                  0      0.00%     75.98% # Class of executed instruction
system.cpu1.op_class::SimdFloatCmp                  0      0.00%     75.98% # Class of executed instruction
system.cpu1.op_class::SimdFloatCvt                  0      0.00%     75.98% # Class of executed instruction
system.cpu1.op_class::SimdFloatDiv                  0      0.00%     75.98% # Class of executed instruction
system.cpu1.op_class::SimdFloatMisc                 0      0.00%     75.98% # Class of executed instruction
system.cpu1.op_class::SimdFloatMult                 0      0.00%     75.98% # Class of executed instruction
system.cpu1.op_class::SimdFloatMultAcc              0      0.00%     75.98% # Class of executed instruction
system.cpu1.op_class::SimdFloatSqrt                 0      0.00%     75.98% # Class of executed instruction
system.cpu1.op_class::MemRead                  238586     14.96%     90.93% # Class of executed instruction
system.cpu1.op_class::MemWrite                 144639      9.07%    100.00% # Class of executed instruction
system.cpu1.op_class::IprAccess                     0      0.00%    100.00% # Class of executed instruction
system.cpu1.op_class::InstPrefetch                  0      0.00%    100.00% # Class of executed instruction
system.cpu1.op_class::total                   1595332                       # Class of executed instruction
system.cpu2.apic_clk_domain.clock                8000                       # Clock period in ticks
system.cpu2.numCycles                      2255541275                       # number of cpu cycles simulated
system.cpu2.numWorkItemsStarted                     0                       # number of work items this cpu started
system.cpu2.numWorkItemsCompleted                   0                       # number of work items this cpu completed
system.cpu2.kern.inst.arm                           0                       # number of arm instructions executed
system.cpu2.kern.inst.quiesce                       0                       # number of quiesce instructions executed
system.cpu2.committedInsts                    2933694                       # Number of instructions committed
system.cpu2.committedOps                      5821515                       # Number of ops (including micro ops) committed
system.cpu2.num_int_alu_accesses              5720200                       # Number of integer alu accesses
system.cpu2.num_fp_alu_accesses                  1826                       # Number of float alu accesses
system.cpu2.num_func_calls                     151032                       # number of times a function call or return occured
system.cpu2.num_conditional_control_insts       490042                       # number of instructions that are conditional controls
system.cpu2.num_int_insts                     5720200                       # number of integer instructions
system.cpu2.num_fp_insts                         1826                       # number of float instructions
system.cpu2.num_int_register_reads           11395626                       # number of times the integer registers were read
system.cpu2.num_int_register_writes           4644640                       # number of times the integer registers were written
system.cpu2.num_fp_register_reads                3068                       # number of times the floating registers were read
system.cpu2.num_fp_register_writes               1448                       # number of times the floating registers were written
system.cpu2.num_cc_register_reads             3631891                       # number of times the CC registers were read
system.cpu2.num_cc_register_writes            1986038                       # number of times the CC registers were written
system.cpu2.num_mem_refs                      1317178                       # number of memory refs
system.cpu2.num_load_insts                     853986                       # Number of load instructions
system.cpu2.num_store_insts                    463192                       # Number of store instructions
system.cpu2.num_idle_cycles              2243534812.734226                       # Number of idle cycles
system.cpu2.num_busy_cycles              12006462.265774                       # Number of busy cycles
system.cpu2.not_idle_fraction                0.005323                       # Percentage of non-idle cycles
system.cpu2.idle_fraction                    0.994677                       # Percentage of idle cycles
system.cpu2.Branches                           668588                       # Number of branches fetched
system.cpu2.op_class::No_OpClass                35754      0.61%      0.61% # Class of executed instruction
system.cpu2.op_class::IntAlu                  4450827     76.45%     77.07% # Class of executed instruction
system.cpu2.op_class::IntMult                    5249      0.09%     77.16% # Class of executed instruction
system.cpu2.op_class::IntDiv                    11223      0.19%     77.35% # Class of executed instruction
system.cpu2.op_class::FloatAdd                   1376      0.02%     77.37% # Class of executed instruction
system.cpu2.op_class::FloatCmp                      0      0.00%     77.37% # Class of executed instruction
system.cpu2.op_class::FloatCvt                      0      0.00%     77.37% # Class of executed instruction
system.cpu2.op_class::FloatMult                     0      0.00%     77.37% # Class of executed instruction
system.cpu2.op_class::FloatDiv                      0      0.00%     77.37% # Class of executed instruction
system.cpu2.op_class::FloatSqrt                     0      0.00%     77.37% # Class of executed instruction
system.cpu2.op_class::SimdAdd                       0      0.00%     77.37% # Class of executed instruction
system.cpu2.op_class::SimdAddAcc                    0      0.00%     77.37% # Class of executed instruction
system.cpu2.op_class::SimdAlu                       0      0.00%     77.37% # Class of executed instruction
system.cpu2.op_class::SimdCmp                       0      0.00%     77.37% # Class of executed instruction
system.cpu2.op_class::SimdCvt                       0      0.00%     77.37% # Class of executed instruction
system.cpu2.op_class::SimdMisc                      0      0.00%     77.37% # Class of executed instruction
system.cpu2.op_class::SimdMult                      0      0.00%     77.37% # Class of executed instruction
system.cpu2.op_class::SimdMultAcc                   0      0.00%     77.37% # Class of executed instruction
system.cpu2.op_class::SimdShift                     0      0.00%     77.37% # Class of executed instruction
system.cpu2.op_class::SimdShiftAcc                  0      0.00%     77.37% # Class of executed instruction
system.cpu2.op_class::SimdSqrt                      0      0.00%     77.37% # Class of executed instruction
system.cpu2.op_class::SimdFloatAdd                  0      0.00%     77.37% # Class of executed instruction
system.cpu2.op_class::SimdFloatAlu                  0      0.00%     77.37% # Class of executed instruction
system.cpu2.op_class::SimdFloatCmp                  0      0.00%     77.37% # Class of executed instruction
system.cpu2.op_class::SimdFloatCvt                  0      0.00%     77.37% # Class of executed instruction
system.cpu2.op_class::SimdFloatDiv                  0      0.00%     77.37% # Class of executed instruction
system.cpu2.op_class::SimdFloatMisc                 0      0.00%     77.37% # Class of executed instruction
system.cpu2.op_class::SimdFloatMult                 0      0.00%     77.37% # Class of executed instruction
system.cpu2.op_class::SimdFloatMultAcc              0      0.00%     77.37% # Class of executed instruction
system.cpu2.op_class::SimdFloatSqrt                 0      0.00%     77.37% # Class of executed instruction
system.cpu2.op_class::MemRead                  853986     14.67%     92.04% # Class of executed instruction
system.cpu2.op_class::MemWrite                 463192      7.96%    100.00% # Class of executed instruction
system.cpu2.op_class::IprAccess                     0      0.00%    100.00% # Class of executed instruction
system.cpu2.op_class::InstPrefetch                  0      0.00%    100.00% # Class of executed instruction
system.cpu2.op_class::total                   5821607                       # Class of executed instruction
system.cpu3.apic_clk_domain.clock                8000                       # Clock period in ticks
system.cpu3.numCycles                      2262410335                       # number of cpu cycles simulated
system.cpu3.numWorkItemsStarted                     0                       # number of work items this cpu started
system.cpu3.numWorkItemsCompleted                   0                       # number of work items this cpu completed
system.cpu3.kern.inst.arm                           0                       # number of arm instructions executed
system.cpu3.kern.inst.quiesce                       0                       # number of quiesce instructions executed
system.cpu3.committedInsts                     863589                       # Number of instructions committed
system.cpu3.committedOps                      1851290                       # Number of ops (including micro ops) committed
system.cpu3.num_int_alu_accesses              1810582                       # Number of integer alu accesses
system.cpu3.num_fp_alu_accesses                    39                       # Number of float alu accesses
system.cpu3.num_func_calls                      50468                       # number of times a function call or return occured
system.cpu3.num_conditional_control_insts       130580                       # number of instructions that are conditional controls
system.cpu3.num_int_insts                     1810582                       # number of integer instructions
system.cpu3.num_fp_insts                           39                       # number of float instructions
system.cpu3.num_int_register_reads            3686948                       # number of times the integer registers were read
system.cpu3.num_int_register_writes           1501060                       # number of times the integer registers were written
system.cpu3.num_fp_register_reads                  63                       # number of times the floating registers were read
system.cpu3.num_fp_register_writes                 31                       # number of times the floating registers were written
system.cpu3.num_cc_register_reads             1041517                       # number of times the CC registers were read
system.cpu3.num_cc_register_writes             548915                       # number of times the CC registers were written
system.cpu3.num_mem_refs                       442265                       # number of memory refs
system.cpu3.num_load_insts                     273968                       # Number of load instructions
system.cpu3.num_store_insts                    168297                       # Number of store instructions
system.cpu3.num_idle_cycles              2258645038.585207                       # Number of idle cycles
system.cpu3.num_busy_cycles              3765296.414793                       # Number of busy cycles
system.cpu3.not_idle_fraction                0.001664                       # Percentage of non-idle cycles
system.cpu3.idle_fraction                    0.998336                       # Percentage of idle cycles
system.cpu3.Branches                           197687                       # Number of branches fetched
system.cpu3.op_class::No_OpClass                34408      1.86%      1.86% # Class of executed instruction
system.cpu3.op_class::IntAlu                  1358604     73.39%     75.24% # Class of executed instruction
system.cpu3.op_class::IntMult                    3553      0.19%     75.44% # Class of executed instruction
system.cpu3.op_class::IntDiv                    12452      0.67%     76.11% # Class of executed instruction
system.cpu3.op_class::FloatAdd                     30      0.00%     76.11% # Class of executed instruction
system.cpu3.op_class::FloatCmp                      0      0.00%     76.11% # Class of executed instruction
system.cpu3.op_class::FloatCvt                      0      0.00%     76.11% # Class of executed instruction
system.cpu3.op_class::FloatMult                     0      0.00%     76.11% # Class of executed instruction
system.cpu3.op_class::FloatDiv                      0      0.00%     76.11% # Class of executed instruction
system.cpu3.op_class::FloatSqrt                     0      0.00%     76.11% # Class of executed instruction
system.cpu3.op_class::SimdAdd                       0      0.00%     76.11% # Class of executed instruction
system.cpu3.op_class::SimdAddAcc                    0      0.00%     76.11% # Class of executed instruction
system.cpu3.op_class::SimdAlu                       0      0.00%     76.11% # Class of executed instruction
system.cpu3.op_class::SimdCmp                       0      0.00%     76.11% # Class of executed instruction
system.cpu3.op_class::SimdCvt                       0      0.00%     76.11% # Class of executed instruction
system.cpu3.op_class::SimdMisc                      0      0.00%     76.11% # Class of executed instruction
system.cpu3.op_class::SimdMult                      0      0.00%     76.11% # Class of executed instruction
system.cpu3.op_class::SimdMultAcc                   0      0.00%     76.11% # Class of executed instruction
system.cpu3.op_class::SimdShift                     0      0.00%     76.11% # Class of executed instruction
system.cpu3.op_class::SimdShiftAcc                  0      0.00%     76.11% # Class of executed instruction
system.cpu3.op_class::SimdSqrt                      0      0.00%     76.11% # Class of executed instruction
system.cpu3.op_class::SimdFloatAdd                  0      0.00%     76.11% # Class of executed instruction
system.cpu3.op_class::SimdFloatAlu                  0      0.00%     76.11% # Class of executed instruction
system.cpu3.op_class::SimdFloatCmp                  0      0.00%     76.11% # Class of executed instruction
system.cpu3.op_class::SimdFloatCvt                  0      0.00%     76.11% # Class of executed instruction
system.cpu3.op_class::SimdFloatDiv                  0      0.00%     76.11% # Class of executed instruction
system.cpu3.op_class::SimdFloatMisc                 0      0.00%     76.11% # Class of executed instruction
system.cpu3.op_class::SimdFloatMult                 0      0.00%     76.11% # Class of executed instruction
system.cpu3.op_class::SimdFloatMultAcc              0      0.00%     76.11% # Class of executed instruction
system.cpu3.op_class::SimdFloatSqrt                 0      0.00%     76.11% # Class of executed instruction
system.cpu3.op_class::MemRead                  273968     14.80%     90.91% # Class of executed instruction
system.cpu3.op_class::MemWrite                 168297      9.09%    100.00% # Class of executed instruction
system.cpu3.op_class::IprAccess                     0      0.00%    100.00% # Class of executed instruction
system.cpu3.op_class::InstPrefetch                  0      0.00%    100.00% # Class of executed instruction
system.cpu3.op_class::total                   1851312                       # Class of executed instruction
system.iobus.trans_dist::ReadReq                  710                       # Transaction distribution
system.iobus.trans_dist::ReadResp                 710                       # Transaction distribution
system.iobus.trans_dist::WriteReq                1398                       # Transaction distribution
system.iobus.trans_dist::WriteResp               1398                       # Transaction distribution
system.iobus.trans_dist::MessageReq                11                       # Transaction distribution
system.iobus.trans_dist::MessageResp               11                       # Transaction distribution
system.iobus.pkt_count_system.pc.south_bridge.io_apic.int_master::system.ruby.l1_cntrl0.sequencer.pio-slave-port            2                       # Packet count per connected master and slave (bytes)
system.iobus.pkt_count_system.pc.south_bridge.io_apic.int_master::system.ruby.l1_cntrl1.sequencer.pio-slave-port            2                       # Packet count per connected master and slave (bytes)
system.iobus.pkt_count_system.pc.south_bridge.io_apic.int_master::system.ruby.l1_cntrl2.sequencer.pio-slave-port            2                       # Packet count per connected master and slave (bytes)
system.iobus.pkt_count_system.pc.south_bridge.io_apic.int_master::system.ruby.l1_cntrl3.sequencer.pio-slave-port            2                       # Packet count per connected master and slave (bytes)
system.iobus.pkt_count_system.pc.south_bridge.io_apic.int_master::total            8                       # Packet count per connected master and slave (bytes)
system.iobus.pkt_count_system.ruby.l1_cntrl0.sequencer.mem-master-port::system.pc.south_bridge.io_apic.pio            6                       # Packet count per connected master and slave (bytes)
system.iobus.pkt_count_system.ruby.l1_cntrl0.sequencer.mem-master-port::system.pc.com_1.pio          130                       # Packet count per connected master and slave (bytes)
system.iobus.pkt_count_system.ruby.l1_cntrl0.sequencer.mem-master-port::system.ruby.l1_cntrl0.sequencer.pio-slave-port          584                       # Packet count per connected master and slave (bytes)
system.iobus.pkt_count_system.ruby.l1_cntrl0.sequencer.mem-master-port::system.ruby.l1_cntrl1.sequencer.pio-slave-port            2                       # Packet count per connected master and slave (bytes)
system.iobus.pkt_count_system.ruby.l1_cntrl0.sequencer.mem-master-port::system.ruby.l1_cntrl3.sequencer.pio-slave-port            2                       # Packet count per connected master and slave (bytes)
system.iobus.pkt_count_system.ruby.l1_cntrl0.sequencer.mem-master-port::total          724                       # Packet count per connected master and slave (bytes)
system.iobus.pkt_count_system.ruby.l1_cntrl1.sequencer.mem-master-port::system.pc.south_bridge.io_apic.pio            8                       # Packet count per connected master and slave (bytes)
system.iobus.pkt_count_system.ruby.l1_cntrl1.sequencer.mem-master-port::system.ruby.l1_cntrl1.sequencer.pio-slave-port          576                       # Packet count per connected master and slave (bytes)
system.iobus.pkt_count_system.ruby.l1_cntrl1.sequencer.mem-master-port::system.ruby.l1_cntrl2.sequencer.pio-slave-port            2                       # Packet count per connected master and slave (bytes)
system.iobus.pkt_count_system.ruby.l1_cntrl1.sequencer.mem-master-port::total          586                       # Packet count per connected master and slave (bytes)
system.iobus.pkt_count_system.ruby.l1_cntrl2.sequencer.mem-master-port::system.pc.south_bridge.io_apic.pio            6                       # Packet count per connected master and slave (bytes)
system.iobus.pkt_count_system.ruby.l1_cntrl2.sequencer.mem-master-port::system.pc.com_1.pio         1734                       # Packet count per connected master and slave (bytes)
system.iobus.pkt_count_system.ruby.l1_cntrl2.sequencer.mem-master-port::system.ruby.l1_cntrl0.sequencer.pio-slave-port            2                       # Packet count per connected master and slave (bytes)
system.iobus.pkt_count_system.ruby.l1_cntrl2.sequencer.mem-master-port::system.ruby.l1_cntrl1.sequencer.pio-slave-port            2                       # Packet count per connected master and slave (bytes)
system.iobus.pkt_count_system.ruby.l1_cntrl2.sequencer.mem-master-port::system.ruby.l1_cntrl2.sequencer.pio-slave-port          586                       # Packet count per connected master and slave (bytes)
system.iobus.pkt_count_system.ruby.l1_cntrl2.sequencer.mem-master-port::system.ruby.l1_cntrl3.sequencer.pio-slave-port            2                       # Packet count per connected master and slave (bytes)
system.iobus.pkt_count_system.ruby.l1_cntrl2.sequencer.mem-master-port::total         2332                       # Packet count per connected master and slave (bytes)
system.iobus.pkt_count_system.ruby.l1_cntrl3.sequencer.mem-master-port::system.pc.south_bridge.io_apic.pio            8                       # Packet count per connected master and slave (bytes)
system.iobus.pkt_count_system.ruby.l1_cntrl3.sequencer.mem-master-port::system.ruby.l1_cntrl0.sequencer.pio-slave-port            2                       # Packet count per connected master and slave (bytes)
system.iobus.pkt_count_system.ruby.l1_cntrl3.sequencer.mem-master-port::system.ruby.l1_cntrl3.sequencer.pio-slave-port          578                       # Packet count per connected master and slave (bytes)
system.iobus.pkt_count_system.ruby.l1_cntrl3.sequencer.mem-master-port::total          588                       # Packet count per connected master and slave (bytes)
system.iobus.pkt_count::total                    4238                       # Packet count per connected master and slave (bytes)
system.iobus.pkt_size_system.pc.south_bridge.io_apic.int_master::system.ruby.l1_cntrl0.sequencer.pio-slave-port            4                       # Cumulative packet size per connected master and slave (bytes)
system.iobus.pkt_size_system.pc.south_bridge.io_apic.int_master::system.ruby.l1_cntrl1.sequencer.pio-slave-port            4                       # Cumulative packet size per connected master and slave (bytes)
system.iobus.pkt_size_system.pc.south_bridge.io_apic.int_master::system.ruby.l1_cntrl2.sequencer.pio-slave-port            4                       # Cumulative packet size per connected master and slave (bytes)
system.iobus.pkt_size_system.pc.south_bridge.io_apic.int_master::system.ruby.l1_cntrl3.sequencer.pio-slave-port            4                       # Cumulative packet size per connected master and slave (bytes)
system.iobus.pkt_size_system.pc.south_bridge.io_apic.int_master::total           16                       # Cumulative packet size per connected master and slave (bytes)
system.iobus.pkt_size_system.ruby.l1_cntrl0.sequencer.mem-master-port::system.pc.south_bridge.io_apic.pio           12                       # Cumulative packet size per connected master and slave (bytes)
system.iobus.pkt_size_system.ruby.l1_cntrl0.sequencer.mem-master-port::system.pc.com_1.pio           65                       # Cumulative packet size per connected master and slave (bytes)
system.iobus.pkt_size_system.ruby.l1_cntrl0.sequencer.mem-master-port::system.ruby.l1_cntrl0.sequencer.pio-slave-port         1168                       # Cumulative packet size per connected master and slave (bytes)
system.iobus.pkt_size_system.ruby.l1_cntrl0.sequencer.mem-master-port::system.ruby.l1_cntrl1.sequencer.pio-slave-port            4                       # Cumulative packet size per connected master and slave (bytes)
system.iobus.pkt_size_system.ruby.l1_cntrl0.sequencer.mem-master-port::system.ruby.l1_cntrl3.sequencer.pio-slave-port            4                       # Cumulative packet size per connected master and slave (bytes)
system.iobus.pkt_size_system.ruby.l1_cntrl0.sequencer.mem-master-port::total         1253                       # Cumulative packet size per connected master and slave (bytes)
system.iobus.pkt_size_system.ruby.l1_cntrl1.sequencer.mem-master-port::system.pc.south_bridge.io_apic.pio           16                       # Cumulative packet size per connected master and slave (bytes)
system.iobus.pkt_size_system.ruby.l1_cntrl1.sequencer.mem-master-port::system.ruby.l1_cntrl1.sequencer.pio-slave-port         1152                       # Cumulative packet size per connected master and slave (bytes)
system.iobus.pkt_size_system.ruby.l1_cntrl1.sequencer.mem-master-port::system.ruby.l1_cntrl2.sequencer.pio-slave-port            4                       # Cumulative packet size per connected master and slave (bytes)
system.iobus.pkt_size_system.ruby.l1_cntrl1.sequencer.mem-master-port::total         1172                       # Cumulative packet size per connected master and slave (bytes)
system.iobus.pkt_size_system.ruby.l1_cntrl2.sequencer.mem-master-port::system.pc.south_bridge.io_apic.pio           12                       # Cumulative packet size per connected master and slave (bytes)
system.iobus.pkt_size_system.ruby.l1_cntrl2.sequencer.mem-master-port::system.pc.com_1.pio          867                       # Cumulative packet size per connected master and slave (bytes)
system.iobus.pkt_size_system.ruby.l1_cntrl2.sequencer.mem-master-port::system.ruby.l1_cntrl0.sequencer.pio-slave-port            4                       # Cumulative packet size per connected master and slave (bytes)
system.iobus.pkt_size_system.ruby.l1_cntrl2.sequencer.mem-master-port::system.ruby.l1_cntrl1.sequencer.pio-slave-port            4                       # Cumulative packet size per connected master and slave (bytes)
system.iobus.pkt_size_system.ruby.l1_cntrl2.sequencer.mem-master-port::system.ruby.l1_cntrl2.sequencer.pio-slave-port         1172                       # Cumulative packet size per connected master and slave (bytes)
system.iobus.pkt_size_system.ruby.l1_cntrl2.sequencer.mem-master-port::system.ruby.l1_cntrl3.sequencer.pio-slave-port            4                       # Cumulative packet size per connected master and slave (bytes)
system.iobus.pkt_size_system.ruby.l1_cntrl2.sequencer.mem-master-port::total         2063                       # Cumulative packet size per connected master and slave (bytes)
system.iobus.pkt_size_system.ruby.l1_cntrl3.sequencer.mem-master-port::system.pc.south_bridge.io_apic.pio           16                       # Cumulative packet size per connected master and slave (bytes)
system.iobus.pkt_size_system.ruby.l1_cntrl3.sequencer.mem-master-port::system.ruby.l1_cntrl0.sequencer.pio-slave-port            4                       # Cumulative packet size per connected master and slave (bytes)
system.iobus.pkt_size_system.ruby.l1_cntrl3.sequencer.mem-master-port::system.ruby.l1_cntrl3.sequencer.pio-slave-port         1156                       # Cumulative packet size per connected master and slave (bytes)
system.iobus.pkt_size_system.ruby.l1_cntrl3.sequencer.mem-master-port::total         1176                       # Cumulative packet size per connected master and slave (bytes)
system.iobus.pkt_size::total                     5680                       # Cumulative packet size per connected master and slave (bytes)
system.iobus.reqLayer8.occupancy                26996                       # Layer occupancy (ticks)
system.iobus.reqLayer8.utilization                0.0                       # Layer utilization (%)
system.iobus.reqLayer12.occupancy             1183500                       # Layer occupancy (ticks)
system.iobus.reqLayer12.utilization               0.0                       # Layer utilization (%)
system.iobus.reqLayer17.occupancy              786251                       # Layer occupancy (ticks)
system.iobus.reqLayer17.utilization               0.0                       # Layer utilization (%)
system.iobus.reqLayer18.occupancy              724500                       # Layer occupancy (ticks)
system.iobus.reqLayer18.utilization               0.0                       # Layer utilization (%)
system.iobus.reqLayer19.occupancy              730997                       # Layer occupancy (ticks)
system.iobus.reqLayer19.utilization               0.0                       # Layer utilization (%)
system.iobus.reqLayer20.occupancy              726999                       # Layer occupancy (ticks)
system.iobus.reqLayer20.utilization               0.0                       # Layer utilization (%)
system.iobus.respLayer0.occupancy                5000                       # Layer occupancy (ticks)
system.iobus.respLayer0.utilization               0.0                       # Layer utilization (%)
system.iobus.respLayer2.occupancy              558500                       # Layer occupancy (ticks)
system.iobus.respLayer2.utilization               0.0                       # Layer utilization (%)
system.iobus.respLayer4.occupancy              440000                       # Layer occupancy (ticks)
system.iobus.respLayer4.utilization               0.0                       # Layer utilization (%)
system.iobus.respLayer6.occupancy             1966500                       # Layer occupancy (ticks)
system.iobus.respLayer6.utilization               0.0                       # Layer utilization (%)
system.iobus.respLayer8.occupancy              441500                       # Layer occupancy (ticks)
system.iobus.respLayer8.utilization               0.0                       # Layer utilization (%)
system.pc.south_bridge.ide.disks.dma_read_full_pages            0                       # Number of full page size DMA reads (not PRD).
system.pc.south_bridge.ide.disks.dma_read_bytes            0                       # Number of bytes transfered via DMA reads (not PRD).
system.pc.south_bridge.ide.disks.dma_read_txs            0                       # Number of DMA read transactions (not PRD).
system.pc.south_bridge.ide.disks.dma_write_full_pages            0                       # Number of full page size DMA writes.
system.pc.south_bridge.ide.disks.dma_write_bytes            0                       # Number of bytes transfered via DMA writes.
system.pc.south_bridge.ide.disks.dma_write_txs            0                       # Number of DMA write transactions.
system.ruby.clk_domain.clock                      500                       # Clock period in ticks
system.ruby.outstanding_req_hist_seqr::bucket_size            1                      
system.ruby.outstanding_req_hist_seqr::max_bucket            9                      
system.ruby.outstanding_req_hist_seqr::samples    936188606                      
system.ruby.outstanding_req_hist_seqr::mean     1.000000                      
system.ruby.outstanding_req_hist_seqr::gmean     1.000000                      
system.ruby.outstanding_req_hist_seqr::stdev     0.000500                      
system.ruby.outstanding_req_hist_seqr    |           0      0.00%      0.00% |   936188372    100.00%    100.00% |         234      0.00%    100.00% |           0      0.00%    100.00% |           0      0.00%    100.00% |           0      0.00%    100.00% |           0      0.00%    100.00% |           0      0.00%    100.00% |           0      0.00%    100.00% |           0      0.00%    100.00%
system.ruby.outstanding_req_hist_seqr::total    936188606                      
system.ruby.latency_hist_seqr::bucket_size          256                      
system.ruby.latency_hist_seqr::max_bucket         2559                      
system.ruby.latency_hist_seqr::samples      936188606                      
system.ruby.latency_hist_seqr::mean          1.422175                      
system.ruby.latency_hist_seqr::gmean         1.030411                      
system.ruby.latency_hist_seqr::stdev         7.874803                      
system.ruby.latency_hist_seqr            |   936102164     99.99%     99.99% |       50161      0.01%    100.00% |       32517      0.00%    100.00% |        2982      0.00%    100.00% |         552      0.00%    100.00% |         177      0.00%    100.00% |          51      0.00%    100.00% |           2      0.00%    100.00% |           0      0.00%    100.00% |           0      0.00%    100.00%
system.ruby.latency_hist_seqr::total        936188606                      
system.ruby.hit_latency_hist_seqr::bucket_size            2                      
system.ruby.hit_latency_hist_seqr::max_bucket           19                      
system.ruby.hit_latency_hist_seqr::samples    933568756                      
system.ruby.hit_latency_hist_seqr::mean      1.069606                      
system.ruby.hit_latency_hist_seqr::gmean     1.016831                      
system.ruby.hit_latency_hist_seqr::stdev     0.831392                      
system.ruby.hit_latency_hist_seqr        |   927070581     99.30%     99.30% |           0      0.00%     99.30% |           0      0.00%     99.30% |           0      0.00%     99.30% |           0      0.00%     99.30% |     6498175      0.70%    100.00% |           0      0.00%    100.00% |           0      0.00%    100.00% |           0      0.00%    100.00% |           0      0.00%    100.00%
system.ruby.hit_latency_hist_seqr::total    933568756                      
system.ruby.miss_latency_hist_seqr::bucket_size          256                      
system.ruby.miss_latency_hist_seqr::max_bucket         2559                      
system.ruby.miss_latency_hist_seqr::samples      2619850                      
system.ruby.miss_latency_hist_seqr::mean   127.058401                      
system.ruby.miss_latency_hist_seqr::gmean   116.452354                      
system.ruby.miss_latency_hist_seqr::stdev    78.004871                      
system.ruby.miss_latency_hist_seqr       |     2533408     96.70%     96.70% |       50161      1.91%     98.62% |       32517      1.24%     99.86% |        2982      0.11%     99.97% |         552      0.02%     99.99% |         177      0.01%    100.00% |          51      0.00%    100.00% |           2      0.00%    100.00% |           0      0.00%    100.00% |           0      0.00%    100.00%
system.ruby.miss_latency_hist_seqr::total      2619850                      
system.ruby.L1Cache.incomplete_times_seqr           98                      
system.ruby.dir_cntrl0.probeFilter.demand_hits            0                       # Number of cache demand hits
system.ruby.dir_cntrl0.probeFilter.demand_misses            0                       # Number of cache demand misses
[...]
system.ruby.L1Cache_Controller.O.L2_Replacement::total         4012                      
system.ruby.L1Cache_Controller.O.L1_to_L2 |       34753     69.71%     69.71% |        5349     10.73%     80.44% |        7079     14.20%     94.64% |        2673      5.36%    100.00%
system.ruby.L1Cache_Controller.O.L1_to_L2::total        49854                      
system.ruby.L1Cache_Controller.O.Trigger_L2_to_L1D |       25661     90.08%     90.08% |         398      1.40%     91.48% |        1520      5.34%     96.81% |         908      3.19%    100.00%
system.ruby.L1Cache_Controller.O.Trigger_L2_to_L1D::total        28487                      
system.ruby.L1Cache_Controller.O.Trigger_L2_to_L1I |        8425     42.61%     42.61% |        4690     23.72%     66.33% |        5530     27.97%     94.30% |        1128      5.70%    100.00%
system.ruby.L1Cache_Controller.O.Trigger_L2_to_L1I::total        19773                      
system.ruby.L1Cache_Controller.O.Other_GETX |        1016     11.41%     11.41% |        1960     22.02%     33.43% |        1933     21.71%     55.14% |        3993     44.86%    100.00%
system.ruby.L1Cache_Controller.O.Other_GETX::total         8902                      
system.ruby.L1Cache_Controller.O.Other_GETS |        1853     12.56%     12.56% |        1293      8.76%     21.32% |        5981     40.54%     61.86% |        5628     38.14%    100.00%
system.ruby.L1Cache_Controller.O.Other_GETS::total        14755                      
system.ruby.L1Cache_Controller.O.Merged_GETS |           0      0.00%      0.00% |           1     50.00%     50.00% |           0      0.00%     50.00% |           1     50.00%    100.00%
system.ruby.L1Cache_Controller.O.Merged_GETS::total            2                      
system.ruby.L1Cache_Controller.M.Load    |    33134261     99.19%     99.19% |       55599      0.17%     99.35% |      127962      0.38%     99.74% |       88303      0.26%    100.00%
system.ruby.L1Cache_Controller.M.Load::total     33406125                      
system.ruby.L1Cache_Controller.M.Ifetch  |   748576131     99.61%     99.61% |        9224      0.00%     99.61% |     2922964      0.39%    100.00% |       32924      0.00%    100.00%
system.ruby.L1Cache_Controller.M.Ifetch::total    751541243                      
system.ruby.L1Cache_Controller.M.Store   |      533911     96.55%     96.55% |        2299      0.42%     96.96% |       12757      2.31%     99.27% |        4039      0.73%    100.00%
system.ruby.L1Cache_Controller.M.Store::total       553006                      
system.ruby.L1Cache_Controller.M.L2_Replacement |     1039606    100.00%    100.00% |           1      0.00%    100.00% |          11      0.00%    100.00% |           1      0.00%    100.00%
system.ruby.L1Cache_Controller.M.L2_Replacement::total      1039619                      
system.ruby.L1Cache_Controller.M.L1_to_L2 |     1860151     99.18%     99.18% |        3916      0.21%     99.39% |        6862      0.37%     99.76% |        4582      0.24%    100.00%
system.ruby.L1Cache_Controller.M.L1_to_L2::total      1875511                      
system.ruby.L1Cache_Controller.M.Trigger_L2_to_L1D |      795444     99.48%     99.48% |        1449      0.18%     99.67% |        1655      0.21%     99.87% |        1018      0.13%    100.00%
system.ruby.L1Cache_Controller.M.Trigger_L2_to_L1D::total       799566                      
system.ruby.L1Cache_Controller.M.Trigger_L2_to_L1I |        3806     84.84%     84.84% |         194      4.32%     89.17% |         399      8.89%     98.06% |          87      1.94%    100.00%
system.ruby.L1Cache_Controller.M.Trigger_L2_to_L1I::total         4486                      
system.ruby.L1Cache_Controller.M.Other_GETX |         163      9.32%      9.32% |         497     28.43%     37.76% |         160      9.15%     46.91% |         928     53.09%    100.00%
system.ruby.L1Cache_Controller.M.Other_GETX::total         1748                      
system.ruby.L1Cache_Controller.M.Other_GETS |        3431     21.71%     21.71% |        2464     15.59%     37.30% |        4612     29.18%     66.47% |        5299     33.53%    100.00%
system.ruby.L1Cache_Controller.M.Other_GETS::total        15806                      
system.ruby.L1Cache_Controller.M.Merged_GETS |          40     38.46%     38.46% |           6      5.77%     44.23% |          54     51.92%     96.15% |           4      3.85%    100.00%
system.ruby.L1Cache_Controller.M.Merged_GETS::total          104                      
system.ruby.L1Cache_Controller.MM.Load   |    61894378     95.82%     95.82% |      342708      0.53%     96.35% |     1923475      2.98%     99.32% |      437009      0.68%    100.00%
system.ruby.L1Cache_Controller.MM.Load::total     64597570                      
system.ruby.L1Cache_Controller.MM.Store  |    55100912     95.37%     95.37% |      390851      0.68%     96.05% |     1763724      3.05%     99.10% |      517695      0.90%    100.00%
system.ruby.L1Cache_Controller.MM.Store::total     57773182                      
system.ruby.L1Cache_Controller.MM.L2_Replacement |     1484988    100.00%    100.00% |           1      0.00%    100.00% |          24      0.00%    100.00% |           0      0.00%    100.00%
system.ruby.L1Cache_Controller.MM.L2_Replacement::total      1485013                      
system.ruby.L1Cache_Controller.MM.L1_to_L2 |     7096154     98.39%     98.39% |       14967      0.21%     98.60% |       84668      1.17%     99.77% |       16447      0.23%    100.00%
system.ruby.L1Cache_Controller.MM.L1_to_L2::total      7212236                      
system.ruby.L1Cache_Controller.MM.Trigger_L2_to_L1D |     5574100     98.65%     98.65% |        5425      0.10%     98.75% |       64520      1.14%     99.89% |        6201      0.11%    100.00%
system.ruby.L1Cache_Controller.MM.Trigger_L2_to_L1D::total      5650246                      
system.ruby.L1Cache_Controller.MM.Other_GETX |        6464     44.29%     44.29% |        2441     16.72%     61.01% |        3545     24.29%     85.30% |        2145     14.70%    100.00%
system.ruby.L1Cache_Controller.MM.Other_GETX::total        14595                      
system.ruby.L1Cache_Controller.MM.Other_GETS |       18613     61.31%     61.31% |        4411     14.53%     75.84% |        4772     15.72%     91.56% |        2561      8.44%    100.00%
system.ruby.L1Cache_Controller.MM.Other_GETS::total        30357                      
system.ruby.L1Cache_Controller.MM.Merged_GETS |          88     21.62%     21.62% |         116     28.50%     50.12% |         127     31.20%     81.33% |          76     18.67%    100.00%
system.ruby.L1Cache_Controller.MM.Merged_GETS::total          407                      
system.ruby.L1Cache_Controller.SR.Load   |       39301     79.28%     79.28% |        2590      5.22%     84.51% |        4712      9.51%     94.01% |        2968      5.99%    100.00%
system.ruby.L1Cache_Controller.SR.Load::total        49571                      
system.ruby.L1Cache_Controller.SR.Ifetch |       26738     33.95%     33.95% |       14134     17.95%     51.90% |       17847     22.66%     74.57% |       20027     25.43%    100.00%
system.ruby.L1Cache_Controller.SR.Ifetch::total        78746                      
system.ruby.L1Cache_Controller.SR.Store  |         205     34.80%     34.80% |          46      7.81%     42.61% |         123     20.88%     63.50% |         215     36.50%    100.00%
system.ruby.L1Cache_Controller.SR.Store::total          589                      
system.ruby.L1Cache_Controller.OR.Load   |       25654     90.22%     90.22% |         385      1.35%     91.57% |        1500      5.28%     96.85% |         896      3.15%    100.00%
system.ruby.L1Cache_Controller.OR.Load::total        28435                      
system.ruby.L1Cache_Controller.OR.Ifetch |        8425     42.61%     42.61% |        4690     23.72%     66.33% |        5530     27.97%     94.30% |        1128      5.70%    100.00%
system.ruby.L1Cache_Controller.OR.Ifetch::total        19773                      
system.ruby.L1Cache_Controller.OR.Store  |           7     13.46%     13.46% |          13     25.00%     38.46% |          20     38.46%     76.92% |          12     23.08%    100.00%
system.ruby.L1Cache_Controller.OR.Store::total           52                      
system.ruby.L1Cache_Controller.MR.Load   |      794992     99.68%     99.68% |         791      0.10%     99.78% |        1045      0.13%     99.91% |         690      0.09%    100.00%
system.ruby.L1Cache_Controller.MR.Load::total       797518                      
system.ruby.L1Cache_Controller.MR.Ifetch |        3806     84.84%     84.84% |         194      4.32%     89.17% |         399      8.89%     98.06% |          87      1.94%    100.00%
system.ruby.L1Cache_Controller.MR.Ifetch::total         4486                      
system.ruby.L1Cache_Controller.MR.Store  |         452     22.07%     22.07% |         658     32.13%     54.20% |         610     29.79%     83.98% |         328     16.02%    100.00%
system.ruby.L1Cache_Controller.MR.Store::total         2048                      
system.ruby.L1Cache_Controller.MMR.Load  |     3261173     98.44%     98.44% |        3185      0.10%     98.54% |       44899      1.36%     99.90% |        3463      0.10%    100.00%
system.ruby.L1Cache_Controller.MMR.Load::total      3312720                      
system.ruby.L1Cache_Controller.MMR.Store |     2312927     98.95%     98.95% |        2240      0.10%     99.04% |       19621      0.84%     99.88% |        2738      0.12%    100.00%
system.ruby.L1Cache_Controller.MMR.Store::total      2337526                      
system.ruby.L1Cache_Controller.IM.Ack    |     2954501     98.51%     98.51% |       19392      0.65%     99.16% |       12447      0.42%     99.57% |       12862      0.43%    100.00%
system.ruby.L1Cache_Controller.IM.Ack::total      2999202                      
system.ruby.L1Cache_Controller.IM.Data   |         917     33.85%     33.85% |         470     17.35%     51.20% |         579     21.37%     72.57% |         743     27.43%    100.00%
system.ruby.L1Cache_Controller.IM.Data::total         2709                      
system.ruby.L1Cache_Controller.IM.Exclusive_Data |      987995     97.81%     97.81% |        8227      0.81%     98.63% |        7673      0.76%     99.39% |        6183      0.61%    100.00%
system.ruby.L1Cache_Controller.IM.Exclusive_Data::total      1010078                      
system.ruby.L1Cache_Controller.SM.Ack    |        3655     50.64%     50.64% |         916     12.69%     63.33% |        1276     17.68%     81.01% |        1371     18.99%    100.00%
system.ruby.L1Cache_Controller.SM.Ack::total         7218                      
system.ruby.L1Cache_Controller.SM.Data   |        2746     44.18%     44.18% |         995     16.01%     60.19% |        1160     18.66%     78.86% |        1314     21.14%    100.00%
system.ruby.L1Cache_Controller.SM.Data::total         6215                      
system.ruby.L1Cache_Controller.OM.Other_GETX |           1    100.00%    100.00% |           0      0.00%    100.00% |           0      0.00%    100.00% |           0      0.00%    100.00%
system.ruby.L1Cache_Controller.OM.Other_GETX::total            1                      
system.ruby.L1Cache_Controller.OM.Ack    |         267     22.25%     22.25% |         138     11.50%     33.75% |         450     37.50%     71.25% |         345     28.75%    100.00%
system.ruby.L1Cache_Controller.OM.Ack::total         1200                      
system.ruby.L1Cache_Controller.OM.All_acks_no_sharers |          89     22.25%     22.25% |          46     11.50%     33.75% |         150     37.50%     71.25% |         115     28.75%    100.00%
system.ruby.L1Cache_Controller.OM.All_acks_no_sharers::total          400                      
system.ruby.L1Cache_Controller.ISM.Ack   |        2295     30.56%     30.56% |        1631     21.72%     52.28% |        1512     20.13%     72.41% |        2072     27.59%    100.00%
system.ruby.L1Cache_Controller.ISM.Ack::total         7510                      
system.ruby.L1Cache_Controller.ISM.All_acks_no_sharers |        3663     41.05%     41.05% |        1465     16.42%     57.46% |        1739     19.49%     76.95% |        2057     23.05%    100.00%
system.ruby.L1Cache_Controller.ISM.All_acks_no_sharers::total         8924                      
system.ruby.L1Cache_Controller.M_W.Load  |          69     26.14%     26.14% |          51     19.32%     45.45% |          41     15.53%     60.98% |         103     39.02%    100.00%
system.ruby.L1Cache_Controller.M_W.Load::total          264                      
system.ruby.L1Cache_Controller.M_W.Store |          21     22.58%     22.58% |          58     62.37%     84.95% |           8      8.60%     93.55% |           6      6.45%    100.00%
system.ruby.L1Cache_Controller.M_W.Store::total           93                      
system.ruby.L1Cache_Controller.M_W.Ack   |        4750     12.97%     12.97% |        3919     10.70%     23.66% |       20743     56.62%     80.28% |        7223     19.72%    100.00%
system.ruby.L1Cache_Controller.M_W.Ack::total        36635                      
system.ruby.L1Cache_Controller.M_W.All_acks_no_sharers |     1596261     97.68%     97.68% |        6560      0.40%     98.08% |       19621      1.20%     99.28% |       11736      0.72%    100.00%
system.ruby.L1Cache_Controller.M_W.All_acks_no_sharers::total      1634178                      
system.ruby.L1Cache_Controller.MM_W.Store |        1363     21.03%     21.03% |         965     14.89%     35.92% |        3317     51.18%     87.10% |         836     12.90%    100.00%
system.ruby.L1Cache_Controller.MM_W.Store::total         6481                      
system.ruby.L1Cache_Controller.MM_W.Ack  |        5460     30.46%     30.46% |        2845     15.87%     46.34% |        6350     35.43%     81.77% |        3268     18.23%    100.00%
system.ruby.L1Cache_Controller.MM_W.Ack::total        17923                      
system.ruby.L1Cache_Controller.MM_W.All_acks_no_sharers |      988016     97.81%     97.81% |        8285      0.82%     98.63% |        7681      0.76%     99.39% |        6189      0.61%    100.00%
system.ruby.L1Cache_Controller.MM_W.All_acks_no_sharers::total      1010171                      
system.ruby.L1Cache_Controller.IS.Other_GETS |           0      0.00%      0.00% |           1     50.00%     50.00% |           1     50.00%    100.00% |           0      0.00%    100.00%
system.ruby.L1Cache_Controller.IS.Other_GETS::total            2                      
system.ruby.L1Cache_Controller.IS.Ack    |     4792598     98.39%     98.39% |       19503      0.40%     98.79% |       28120      0.58%     99.37% |       30662      0.63%    100.00%
system.ruby.L1Cache_Controller.IS.Ack::total      4870883                      
system.ruby.L1Cache_Controller.IS.Shared_Ack |       10694     31.34%     31.34% |       11382     33.35%     64.69% |        2181      6.39%     71.08% |        9870     28.92%    100.00%
system.ruby.L1Cache_Controller.IS.Shared_Ack::total        34127                      
system.ruby.L1Cache_Controller.IS.Data   |        4648     39.80%     39.80% |        3374     28.89%     68.69% |          92      0.79%     69.48% |        3564     30.52%    100.00%
system.ruby.L1Cache_Controller.IS.Data::total        11678                      
system.ruby.L1Cache_Controller.IS.Shared_Data |        8714     28.04%     28.04% |        8267     26.60%     54.65% |        6744     21.70%     76.35% |        7350     23.65%    100.00%
system.ruby.L1Cache_Controller.IS.Shared_Data::total        31075                      
system.ruby.L1Cache_Controller.IS.Exclusive_Data |     1596282     97.68%     97.68% |        6618      0.40%     98.08% |       19629      1.20%     99.28% |       11742      0.72%    100.00%
system.ruby.L1Cache_Controller.IS.Exclusive_Data::total      1634271                      
system.ruby.L1Cache_Controller.SS.Load   |         160     36.95%     36.95% |          39      9.01%     45.96% |         149     34.41%     80.37% |          85     19.63%    100.00%
system.ruby.L1Cache_Controller.SS.Load::total          433                      
system.ruby.L1Cache_Controller.SS.Ifetch |        2344     36.62%     36.62% |        1576     24.62%     61.25% |         601      9.39%     70.64% |        1879     29.36%    100.00%
system.ruby.L1Cache_Controller.SS.Ifetch::total         6400                      
system.ruby.L1Cache_Controller.SS.Store  |          25     48.08%     48.08% |           4      7.69%     55.77% |          22     42.31%     98.08% |           1      1.92%    100.00%
system.ruby.L1Cache_Controller.SS.Store::total           52                      
system.ruby.L1Cache_Controller.SS.Ack    |        4790     25.15%     25.15% |        5084     26.70%     51.85% |        4848     25.46%     77.31% |        4320     22.69%    100.00%
system.ruby.L1Cache_Controller.SS.Ack::total        19042                      
system.ruby.L1Cache_Controller.SS.Shared_Ack |        2251     28.73%     28.73% |        2400     30.64%     59.37% |        1150     14.68%     74.05% |        2033     25.95%    100.00%
system.ruby.L1Cache_Controller.SS.Shared_Ack::total         7834                      
system.ruby.L1Cache_Controller.SS.All_acks |       13362     31.25%     31.25% |       11641     27.23%     58.48% |        6836     15.99%     74.47% |       10914     25.53%    100.00%
system.ruby.L1Cache_Controller.SS.All_acks::total        42753                      
system.ruby.L1Cache_Controller.OI.Writeback_Ack |        4005     99.83%     99.83% |           0      0.00%     99.83% |           6      0.15%     99.98% |           1      0.02%    100.00%
system.ruby.L1Cache_Controller.OI.Writeback_Ack::total         4012                      
system.ruby.L1Cache_Controller.MI.Load   |         213    100.00%    100.00% |           0      0.00%    100.00% |           0      0.00%    100.00% |           0      0.00%    100.00%
system.ruby.L1Cache_Controller.MI.Load::total          213                      
system.ruby.L1Cache_Controller.MI.Store  |         945    100.00%    100.00% |           0      0.00%    100.00% |           0      0.00%    100.00% |           0      0.00%    100.00%
system.ruby.L1Cache_Controller.MI.Store::total          945                      
system.ruby.L1Cache_Controller.MI.Writeback_Ack |     2524594    100.00%    100.00% |           2      0.00%    100.00% |          35      0.00%    100.00% |           1      0.00%    100.00%
system.ruby.L1Cache_Controller.MI.Writeback_Ack::total      2524632                      
system.ruby.L1Cache_Controller.ST.Complete_L2_to_L1 |       66244     51.39%     51.39% |       16770     13.01%     64.40% |       22682     17.60%     81.99% |       23210     18.01%    100.00%
system.ruby.L1Cache_Controller.ST.Complete_L2_to_L1::total       128906                      
system.ruby.L1Cache_Controller.OT.Complete_L2_to_L1 |       34086     70.63%     70.63% |        5088     10.54%     81.17% |        7050     14.61%     95.78% |        2036      4.22%    100.00%
system.ruby.L1Cache_Controller.OT.Complete_L2_to_L1::total        48260                      
system.ruby.L1Cache_Controller.MT.Complete_L2_to_L1 |      799250     99.40%     99.40% |        1643      0.20%     99.61% |        2054      0.26%     99.86% |        1105      0.14%    100.00%
system.ruby.L1Cache_Controller.MT.Complete_L2_to_L1::total       804052                      
system.ruby.L1Cache_Controller.MMT.Complete_L2_to_L1 |     5574100     98.65%     98.65% |        5425      0.10%     98.75% |       64520      1.14%     99.89% |        6201      0.11%    100.00%
system.ruby.L1Cache_Controller.MMT.Complete_L2_to_L1::total      5650246                      

---------- End Simulation Statistics   ----------
