
---------- Begin Simulation Statistics ----------
sim_seconds                                  2.909176                       # Number of seconds simulated
sim_ticks                                2909176274000                       # Number of ticks simulated
final_tick                               54775551673501                       # Number of ticks from beginning of simulation (restored from checkpoints and never reset)
sim_freq                                 1000000000000                       # Frequency of simulated ticks
host_inst_rate                                 132526                       # Simulator instruction rate (inst/s)
host_op_rate                                   222104                       # Simulator op (including micro ops) rate (op/s)
host_tick_rate                              251449084                       # Simulator tick rate (ticks/s)
host_mem_usage                                1943644                       # Number of bytes of host memory used
host_seconds                                 11569.64                       # Real time elapsed on the host
sim_insts                                  1533275344                       # Number of instructions simulated
sim_ops                                    2569663897                       # Number of ops (including micro ops) simulated
system.voltage_domain.voltage                       1                       # Voltage in Volts
system.clk_domain.clock                          1000                       # Clock period in ticks
system.mem_ctrls.bytes_read::ruby.dir_cntrl0     10655232                       # Number of bytes read from this memory
system.mem_ctrls.bytes_read::total           10655232                       # Number of bytes read from this memory
system.mem_ctrls.bytes_written::ruby.dir_cntrl0      1056576                       # Number of bytes written to this memory
system.mem_ctrls.bytes_written::total         1056576                       # Number of bytes written to this memory
system.mem_ctrls.num_reads::ruby.dir_cntrl0       166488                       # Number of read requests responded to by this memory
system.mem_ctrls.num_reads::total              166488                       # Number of read requests responded to by this memory
system.mem_ctrls.num_writes::ruby.dir_cntrl0        16509                       # Number of write requests responded to by this memory
system.mem_ctrls.num_writes::total              16509                       # Number of write requests responded to by this memory
system.mem_ctrls.bw_read::ruby.dir_cntrl0      3662629                       # Total read bandwidth from this memory (bytes/s)
system.mem_ctrls.bw_read::total               3662629                       # Total read bandwidth from this memory (bytes/s)
system.mem_ctrls.bw_write::ruby.dir_cntrl0       363187                       # Write bandwidth from this memory (bytes/s)
system.mem_ctrls.bw_write::total               363187                       # Write bandwidth from this memory (bytes/s)
system.mem_ctrls.bw_total::ruby.dir_cntrl0      4025816                       # Total bandwidth to/from this memory (bytes/s)
system.mem_ctrls.bw_total::total              4025816                       # Total bandwidth to/from this memory (bytes/s)
system.mem_ctrls.readReqs                      166488                       # Number of read requests accepted
system.mem_ctrls.writeReqs                      16509                       # Number of write requests accepted
system.mem_ctrls.readBursts                    166488                       # Number of DRAM read bursts, including those serviced by the write queue
system.mem_ctrls.writeBursts                    16509                       # Number of DRAM write bursts, including those merged in the write queue
system.mem_ctrls.bytesReadDRAM               10653888                       # Total number of bytes read from DRAM
system.mem_ctrls.bytesReadWrQ                    1344                       # Total number of bytes read from write queue
system.mem_ctrls.bytesWritten                 1056256                       # Total number of bytes written to DRAM
system.mem_ctrls.bytesReadSys                10655232                       # Total read bytes from the system interface side
system.mem_ctrls.bytesWrittenSys              1056576                       # Total written bytes from the system interface side
system.mem_ctrls.servicedByWrQ                     21                       # Number of DRAM read bursts serviced by the write queue
system.mem_ctrls.mergedWrBursts                     0                       # Number of DRAM write bursts merged with an existing one
system.mem_ctrls.neitherReadNorWriteReqs            0                       # Number of requests that are neither read nor write
system.mem_ctrls.perBankRdBursts::0             10729                       # Per bank write bursts
system.mem_ctrls.perBankRdBursts::1             10956                       # Per bank write bursts
system.mem_ctrls.perBankRdBursts::2             10799                       # Per bank write bursts
system.mem_ctrls.perBankRdBursts::3              9515                       # Per bank write bursts
system.mem_ctrls.perBankRdBursts::4             10131                       # Per bank write bursts
system.mem_ctrls.perBankRdBursts::5             10019                       # Per bank write bursts
system.mem_ctrls.perBankRdBursts::6             10252                       # Per bank write bursts
system.mem_ctrls.perBankRdBursts::7             10805                       # Per bank write bursts
system.mem_ctrls.perBankRdBursts::8             10463                       # Per bank write bursts
system.mem_ctrls.perBankRdBursts::9             10504                       # Per bank write bursts
system.mem_ctrls.perBankRdBursts::10            10317                       # Per bank write bursts
system.mem_ctrls.perBankRdBursts::11             9908                       # Per bank write bursts
system.mem_ctrls.perBankRdBursts::12             9985                       # Per bank write bursts
system.mem_ctrls.perBankRdBursts::13            10555                       # Per bank write bursts
system.mem_ctrls.perBankRdBursts::14            11043                       # Per bank write bursts
system.mem_ctrls.perBankRdBursts::15            10486                       # Per bank write bursts
system.mem_ctrls.perBankWrBursts::0              1293                       # Per bank write bursts
system.mem_ctrls.perBankWrBursts::1              1131                       # Per bank write bursts
system.mem_ctrls.perBankWrBursts::2              1012                       # Per bank write bursts
system.mem_ctrls.perBankWrBursts::3               582                       # Per bank write bursts
system.mem_ctrls.perBankWrBursts::4              1052                       # Per bank write bursts
system.mem_ctrls.perBankWrBursts::5              1092                       # Per bank write bursts
system.mem_ctrls.perBankWrBursts::6              1141                       # Per bank write bursts
system.mem_ctrls.perBankWrBursts::7               977                       # Per bank write bursts
system.mem_ctrls.perBankWrBursts::8              1165                       # Per bank write bursts
system.mem_ctrls.perBankWrBursts::9              1064                       # Per bank write bursts
system.mem_ctrls.perBankWrBursts::10             1084                       # Per bank write bursts
system.mem_ctrls.perBankWrBursts::11              851                       # Per bank write bursts
system.mem_ctrls.perBankWrBursts::12              931                       # Per bank write bursts
system.mem_ctrls.perBankWrBursts::13              883                       # Per bank write bursts
system.mem_ctrls.perBankWrBursts::14             1185                       # Per bank write bursts
system.mem_ctrls.perBankWrBursts::15             1061                       # Per bank write bursts
system.mem_ctrls.numRdRetry                         0                       # Number of times read queue was full causing retry
system.mem_ctrls.numWrRetry                         0                       # Number of times write queue was full causing retry
system.mem_ctrls.totGap                  2909176203000                       # Total gap between requests
system.mem_ctrls.readPktSize::0                     0                       # Read request sizes (log2)
system.mem_ctrls.readPktSize::1                     0                       # Read request sizes (log2)
system.mem_ctrls.readPktSize::2                     0                       # Read request sizes (log2)
system.mem_ctrls.readPktSize::3                     0                       # Read request sizes (log2)
system.mem_ctrls.readPktSize::4                     0                       # Read request sizes (log2)
system.mem_ctrls.readPktSize::5                     0                       # Read request sizes (log2)
system.mem_ctrls.readPktSize::6                166488                       # Read request sizes (log2)
system.mem_ctrls.writePktSize::0                    0                       # Write request sizes (log2)
system.mem_ctrls.writePktSize::1                    0                       # Write request sizes (log2)
system.mem_ctrls.writePktSize::2                    0                       # Write request sizes (log2)
system.mem_ctrls.writePktSize::3                    0                       # Write request sizes (log2)
system.mem_ctrls.writePktSize::4                    0                       # Write request sizes (log2)
system.mem_ctrls.writePktSize::5                    0                       # Write request sizes (log2)
system.mem_ctrls.writePktSize::6                16509                       # Write request sizes (log2)
system.mem_ctrls.rdQLenPdf::0                  165736                       # What read queue length does an incoming req see
system.mem_ctrls.rdQLenPdf::1                     718                       # What read queue length does an incoming req see
system.mem_ctrls.rdQLenPdf::2                      13                       # What read queue length does an incoming req see
system.mem_ctrls.rdQLenPdf::3                       0                       # What read queue length does an incoming req see
system.mem_ctrls.rdQLenPdf::4                       0                       # What read queue length does an incoming req see
system.mem_ctrls.rdQLenPdf::5                       0                       # What read queue length does an incoming req see
system.mem_ctrls.rdQLenPdf::6                       0                       # What read queue length does an incoming req see
system.mem_ctrls.rdQLenPdf::7                       0                       # What read queue length does an incoming req see
system.mem_ctrls.rdQLenPdf::8                       0                       # What read queue length does an incoming req see
system.mem_ctrls.rdQLenPdf::9                       0                       # What read queue length does an incoming req see
system.mem_ctrls.rdQLenPdf::10                      0                       # What read queue length does an incoming req see
system.mem_ctrls.rdQLenPdf::11                      0                       # What read queue length does an incoming req see
system.mem_ctrls.rdQLenPdf::12                      0                       # What read queue length does an incoming req see
system.mem_ctrls.rdQLenPdf::13                      0                       # What read queue length does an incoming req see
system.mem_ctrls.rdQLenPdf::14                      0                       # What read queue length does an incoming req see
system.mem_ctrls.rdQLenPdf::15                      0                       # What read queue length does an incoming req see
system.mem_ctrls.rdQLenPdf::16                      0                       # What read queue length does an incoming req see
system.mem_ctrls.rdQLenPdf::17                      0                       # What read queue length does an incoming req see
system.mem_ctrls.rdQLenPdf::18                      0                       # What read queue length does an incoming req see
system.mem_ctrls.rdQLenPdf::19                      0                       # What read queue length does an incoming req see
system.mem_ctrls.rdQLenPdf::20                      0                       # What read queue length does an incoming req see
system.mem_ctrls.rdQLenPdf::21                      0                       # What read queue length does an incoming req see
system.mem_ctrls.rdQLenPdf::22                      0                       # What read queue length does an incoming req see
system.mem_ctrls.rdQLenPdf::23                      0                       # What read queue length does an incoming req see
system.mem_ctrls.rdQLenPdf::24                      0                       # What read queue length does an incoming req see
system.mem_ctrls.rdQLenPdf::25                      0                       # What read queue length does an incoming req see
system.mem_ctrls.rdQLenPdf::26                      0                       # What read queue length does an incoming req see
system.mem_ctrls.rdQLenPdf::27                      0                       # What read queue length does an incoming req see
system.mem_ctrls.rdQLenPdf::28                      0                       # What read queue length does an incoming req see
system.mem_ctrls.rdQLenPdf::29                      0                       # What read queue length does an incoming req see
system.mem_ctrls.rdQLenPdf::30                      0                       # What read queue length does an incoming req see
system.mem_ctrls.rdQLenPdf::31                      0                       # What read queue length does an incoming req see
system.mem_ctrls.wrQLenPdf::0                       0                       # What write queue length does an incoming req see
system.mem_ctrls.wrQLenPdf::1                       0                       # What write queue length does an incoming req see
system.mem_ctrls.wrQLenPdf::2                       0                       # What write queue length does an incoming req see
system.mem_ctrls.wrQLenPdf::3                       0                       # What write queue length does an incoming req see
system.mem_ctrls.wrQLenPdf::4                       0                       # What write queue length does an incoming req see
system.mem_ctrls.wrQLenPdf::5                       0                       # What write queue length does an incoming req see
system.mem_ctrls.wrQLenPdf::6                       0                       # What write queue length does an incoming req see
system.mem_ctrls.wrQLenPdf::7                       0                       # What write queue length does an incoming req see
system.mem_ctrls.wrQLenPdf::8                       0                       # What write queue length does an incoming req see
system.mem_ctrls.wrQLenPdf::9                       0                       # What write queue length does an incoming req see
system.mem_ctrls.wrQLenPdf::10                      0                       # What write queue length does an incoming req see
system.mem_ctrls.wrQLenPdf::11                      0                       # What write queue length does an incoming req see
system.mem_ctrls.wrQLenPdf::12                      0                       # What write queue length does an incoming req see
system.mem_ctrls.wrQLenPdf::13                      0                       # What write queue length does an incoming req see
system.mem_ctrls.wrQLenPdf::14                      0                       # What write queue length does an incoming req see
system.mem_ctrls.wrQLenPdf::15                    691                       # What write queue length does an incoming req see
system.mem_ctrls.wrQLenPdf::16                    753                       # What write queue length does an incoming req see
system.mem_ctrls.wrQLenPdf::17                    887                       # What write queue length does an incoming req see
system.mem_ctrls.wrQLenPdf::18                    949                       # What write queue length does an incoming req see
system.mem_ctrls.wrQLenPdf::19                    911                       # What write queue length does an incoming req see
system.mem_ctrls.wrQLenPdf::20                    981                       # What write queue length does an incoming req see
system.mem_ctrls.wrQLenPdf::21                    931                       # What write queue length does an incoming req see
system.mem_ctrls.wrQLenPdf::22                   1004                       # What write queue length does an incoming req see
system.mem_ctrls.wrQLenPdf::23                    924                       # What write queue length does an incoming req see
system.mem_ctrls.wrQLenPdf::24                    994                       # What write queue length does an incoming req see
system.mem_ctrls.wrQLenPdf::25                    921                       # What write queue length does an incoming req see
system.mem_ctrls.wrQLenPdf::26                    958                       # What write queue length does an incoming req see
system.mem_ctrls.wrQLenPdf::27                    917                       # What write queue length does an incoming req see
system.mem_ctrls.wrQLenPdf::28                    951                       # What write queue length does an incoming req see
system.mem_ctrls.wrQLenPdf::29                    914                       # What write queue length does an incoming req see
system.mem_ctrls.wrQLenPdf::30                    924                       # What write queue length does an incoming req see
system.mem_ctrls.wrQLenPdf::31                    902                       # What write queue length does an incoming req see
system.mem_ctrls.wrQLenPdf::32                    893                       # What write queue length does an incoming req see
system.mem_ctrls.wrQLenPdf::33                     14                       # What write queue length does an incoming req see
system.mem_ctrls.wrQLenPdf::34                     17                       # What write queue length does an incoming req see
system.mem_ctrls.wrQLenPdf::35                     10                       # What write queue length does an incoming req see
system.mem_ctrls.wrQLenPdf::36                     11                       # What write queue length does an incoming req see
system.mem_ctrls.wrQLenPdf::37                      9                       # What write queue length does an incoming req see
system.mem_ctrls.wrQLenPdf::38                      8                       # What write queue length does an incoming req see
system.mem_ctrls.wrQLenPdf::39                      5                       # What write queue length does an incoming req see
system.mem_ctrls.wrQLenPdf::40                      7                       # What write queue length does an incoming req see
system.mem_ctrls.wrQLenPdf::41                      4                       # What write queue length does an incoming req see
system.mem_ctrls.wrQLenPdf::42                      5                       # What write queue length does an incoming req see
system.mem_ctrls.wrQLenPdf::43                      3                       # What write queue length does an incoming req see
system.mem_ctrls.wrQLenPdf::44                      5                       # What write queue length does an incoming req see
system.mem_ctrls.wrQLenPdf::45                      2                       # What write queue length does an incoming req see
system.mem_ctrls.wrQLenPdf::46                      2                       # What write queue length does an incoming req see
system.mem_ctrls.wrQLenPdf::47                      1                       # What write queue length does an incoming req see
system.mem_ctrls.wrQLenPdf::48                      1                       # What write queue length does an incoming req see
system.mem_ctrls.wrQLenPdf::49                      0                       # What write queue length does an incoming req see
system.mem_ctrls.wrQLenPdf::50                      0                       # What write queue length does an incoming req see
system.mem_ctrls.wrQLenPdf::51                      0                       # What write queue length does an incoming req see
system.mem_ctrls.wrQLenPdf::52                      0                       # What write queue length does an incoming req see
system.mem_ctrls.wrQLenPdf::53                      0                       # What write queue length does an incoming req see
system.mem_ctrls.wrQLenPdf::54                      0                       # What write queue length does an incoming req see
system.mem_ctrls.wrQLenPdf::55                      0                       # What write queue length does an incoming req see
system.mem_ctrls.wrQLenPdf::56                      0                       # What write queue length does an incoming req see
system.mem_ctrls.wrQLenPdf::57                      0                       # What write queue length does an incoming req see
system.mem_ctrls.wrQLenPdf::58                      0                       # What write queue length does an incoming req see
system.mem_ctrls.wrQLenPdf::59                      0                       # What write queue length does an incoming req see
system.mem_ctrls.wrQLenPdf::60                      0                       # What write queue length does an incoming req see
system.mem_ctrls.wrQLenPdf::61                      0                       # What write queue length does an incoming req see
system.mem_ctrls.wrQLenPdf::62                      0                       # What write queue length does an incoming req see
system.mem_ctrls.wrQLenPdf::63                      0                       # What write queue length does an incoming req see
system.mem_ctrls.bytesPerActivate::samples        40853                       # Bytes accessed per row activation
system.mem_ctrls.bytesPerActivate::mean    286.644114                       # Bytes accessed per row activation
system.mem_ctrls.bytesPerActivate::gmean   158.359380                       # Bytes accessed per row activation
system.mem_ctrls.bytesPerActivate::stdev   346.615164                       # Bytes accessed per row activation
system.mem_ctrls.bytesPerActivate::0-127        16994     41.60%     41.60% # Bytes accessed per row activation
system.mem_ctrls.bytesPerActivate::128-255        12243     29.97%     71.57% # Bytes accessed per row activation
system.mem_ctrls.bytesPerActivate::256-383         2267      5.55%     77.12% # Bytes accessed per row activation
system.mem_ctrls.bytesPerActivate::384-511         1127      2.76%     79.87% # Bytes accessed per row activation
system.mem_ctrls.bytesPerActivate::512-639          726      1.78%     81.65% # Bytes accessed per row activation
system.mem_ctrls.bytesPerActivate::640-767          474      1.16%     82.81% # Bytes accessed per row activation
system.mem_ctrls.bytesPerActivate::768-895          399      0.98%     83.79% # Bytes accessed per row activation
system.mem_ctrls.bytesPerActivate::896-1023          357      0.87%     84.66% # Bytes accessed per row activation
system.mem_ctrls.bytesPerActivate::1024-1151         6266     15.34%    100.00% # Bytes accessed per row activation
system.mem_ctrls.bytesPerActivate::total        40853                       # Bytes accessed per row activation
system.mem_ctrls.rdPerTurnAround::samples          875                       # Reads before turning the bus around for writes
system.mem_ctrls.rdPerTurnAround::mean     211.668571                       # Reads before turning the bus around for writes
system.mem_ctrls.rdPerTurnAround::stdev   1131.011362                       # Reads before turning the bus around for writes
system.mem_ctrls.rdPerTurnAround::0-1023          856     97.83%     97.83% # Reads before turning the bus around for writes
system.mem_ctrls.rdPerTurnAround::1024-2047            2      0.23%     98.06% # Reads before turning the bus around for writes
system.mem_ctrls.rdPerTurnAround::2048-3071            5      0.57%     98.63% # Reads before turning the bus around for writes
system.mem_ctrls.rdPerTurnAround::4096-5119            2      0.23%     98.86% # Reads before turning the bus around for writes
system.mem_ctrls.rdPerTurnAround::5120-6143            1      0.11%     98.97% # Reads before turning the bus around for writes
system.mem_ctrls.rdPerTurnAround::6144-7167            3      0.34%     99.31% # Reads before turning the bus around for writes
system.mem_ctrls.rdPerTurnAround::7168-8191            2      0.23%     99.54% # Reads before turning the bus around for writes
system.mem_ctrls.rdPerTurnAround::9216-10239            1      0.11%     99.66% # Reads before turning the bus around for writes
system.mem_ctrls.rdPerTurnAround::10240-11263            1      0.11%     99.77% # Reads before turning the bus around for writes
system.mem_ctrls.rdPerTurnAround::13312-14335            1      0.11%     99.89% # Reads before turning the bus around for writes
system.mem_ctrls.rdPerTurnAround::20480-21503            1      0.11%    100.00% # Reads before turning the bus around for writes
system.mem_ctrls.rdPerTurnAround::total           875                       # Reads before turning the bus around for writes
system.mem_ctrls.wrPerTurnAround::samples          875                       # Writes before turning the bus around for reads
system.mem_ctrls.wrPerTurnAround::mean      18.861714                       # Writes before turning the bus around for reads
system.mem_ctrls.wrPerTurnAround::gmean     18.502188                       # Writes before turning the bus around for reads
system.mem_ctrls.wrPerTurnAround::stdev      4.604528                       # Writes before turning the bus around for reads
system.mem_ctrls.wrPerTurnAround::16-17           179     20.46%     20.46% # Writes before turning the bus around for reads
system.mem_ctrls.wrPerTurnAround::18-19           605     69.14%     89.60% # Writes before turning the bus around for reads
system.mem_ctrls.wrPerTurnAround::20-21             6      0.69%     90.29% # Writes before turning the bus around for reads
system.mem_ctrls.wrPerTurnAround::22-23            22      2.51%     92.80% # Writes before turning the bus around for reads
system.mem_ctrls.wrPerTurnAround::24-25             7      0.80%     93.60% # Writes before turning the bus around for reads
system.mem_ctrls.wrPerTurnAround::26-27             1      0.11%     93.71% # Writes before turning the bus around for reads
system.mem_ctrls.wrPerTurnAround::28-29            17      1.94%     95.66% # Writes before turning the bus around for reads
system.mem_ctrls.wrPerTurnAround::30-31             3      0.34%     96.00% # Writes before turning the bus around for reads
system.mem_ctrls.wrPerTurnAround::32-33             3      0.34%     96.34% # Writes before turning the bus around for reads
system.mem_ctrls.wrPerTurnAround::34-35            25      2.86%     99.20% # Writes before turning the bus around for reads
system.mem_ctrls.wrPerTurnAround::40-41             4      0.46%     99.66% # Writes before turning the bus around for reads
system.mem_ctrls.wrPerTurnAround::56-57             2      0.23%     99.89% # Writes before turning the bus around for reads
system.mem_ctrls.wrPerTurnAround::64-65             1      0.11%    100.00% # Writes before turning the bus around for reads
system.mem_ctrls.wrPerTurnAround::total           875                       # Writes before turning the bus around for reads
system.mem_ctrls.totQLat                    926593747                       # Total ticks spent queuing
system.mem_ctrls.totMemAccLat              4047849997                       # Total ticks spent from burst creation until serviced by the DRAM
system.mem_ctrls.totBusLat                  832335000                       # Total ticks spent in databus transfers
system.mem_ctrls.avgQLat                      5566.23                       # Average queueing delay per DRAM burst
system.mem_ctrls.avgBusLat                    5000.00                       # Average bus latency per DRAM burst
system.mem_ctrls.avgMemAccLat                24316.23                       # Average memory access latency per DRAM burst
system.mem_ctrls.avgRdBW                         3.66                       # Average DRAM read bandwidth in MiByte/s
system.mem_ctrls.avgWrBW                         0.36                       # Average achieved write bandwidth in MiByte/s
system.mem_ctrls.avgRdBWSys                      3.66                       # Average system read bandwidth in MiByte/s
system.mem_ctrls.avgWrBWSys                      0.36                       # Average system write bandwidth in MiByte/s
system.mem_ctrls.peakBW                      12800.00                       # Theoretical peak bandwidth in MiByte/s
system.mem_ctrls.busUtil                         0.03                       # Data bus utilization in percentage
system.mem_ctrls.busUtilRead                     0.03                       # Data bus utilization in percentage for reads
system.mem_ctrls.busUtilWrite                    0.00                       # Data bus utilization in percentage for writes
system.mem_ctrls.avgRdQLen                       1.00                       # Average read queue length when enqueuing
system.mem_ctrls.avgWrQLen                      24.33                       # Average write queue length when enqueuing
system.mem_ctrls.readRowHits                   135122                       # Number of row buffer hits during reads
system.mem_ctrls.writeRowHits                    6996                       # Number of row buffer hits during writes
system.mem_ctrls.readRowHitRate                 81.17                       # Row buffer hit rate for reads
system.mem_ctrls.writeRowHitRate                42.38                       # Row buffer hit rate for writes
system.mem_ctrls.avgGap                   15897398.33                       # Average gap between requests
system.mem_ctrls.pageHitRate                    77.67                       # Row buffer hit rate, read and write combined
system.mem_ctrls_0.actEnergy                174106800                       # Energy for activate commands per rank (pJ)
system.mem_ctrls_0.preEnergy                 94998750                       # Energy for precharge commands per rank (pJ)
system.mem_ctrls_0.readEnergy               721936800                       # Energy for read commands per rank (pJ)
system.mem_ctrls_0.writeEnergy               53654400                       # Energy for write commands per rank (pJ)
system.mem_ctrls_0.refreshEnergy         190272638400                       # Energy for refresh commands per rank (pJ)
system.mem_ctrls_0.actBackEnergy          89368722810                       # Energy for active background per rank (pJ)
system.mem_ctrls_0.preBackEnergy         1669495084500                       # Energy for precharge background per rank (pJ)
system.mem_ctrls_0.totalEnergy           1950181142460                       # Total energy per rank (pJ)
system.mem_ctrls_0.averagePower            669.441186                       # Core power per rank (mW)
system.mem_ctrls_0.memoryStateTime::IDLE 2775691067250                       # Time in different power states
system.mem_ctrls_0.memoryStateTime::REF   97143800000                       # Time in different power states
system.mem_ctrls_0.memoryStateTime::PRE_PDN            0                       # Time in different power states
system.mem_ctrls_0.memoryStateTime::ACT   36339255250                       # Time in different power states
system.mem_ctrls_0.memoryStateTime::ACT_PDN            0                       # Time in different power states
system.mem_ctrls_1.actEnergy                167053320                       # Energy for activate commands per rank (pJ)
system.mem_ctrls_1.preEnergy                 91150125                       # Energy for precharge commands per rank (pJ)
system.mem_ctrls_1.readEnergy               724846200                       # Energy for read commands per rank (pJ)
system.mem_ctrls_1.writeEnergy               53291520                       # Energy for write commands per rank (pJ)
system.mem_ctrls_1.refreshEnergy         190272638400                       # Energy for refresh commands per rank (pJ)
system.mem_ctrls_1.actBackEnergy          86745835890                       # Energy for active background per rank (pJ)
system.mem_ctrls_1.preBackEnergy         1671795862500                       # Energy for precharge background per rank (pJ)
system.mem_ctrls_1.totalEnergy           1949850677955                       # Total energy per rank (pJ)
system.mem_ctrls_1.averagePower            669.327747                       # Core power per rank (mW)
system.mem_ctrls_1.memoryStateTime::IDLE 2779466258250                       # Time in different power states
system.mem_ctrls_1.memoryStateTime::REF   97143800000                       # Time in different power states
system.mem_ctrls_1.memoryStateTime::PRE_PDN            0                       # Time in different power states
system.mem_ctrls_1.memoryStateTime::ACT   32566529250                       # Time in different power states
system.mem_ctrls_1.memoryStateTime::ACT_PDN            0                       # Time in different power states
system.cpu_voltage_domain.voltage                   1                       # Voltage in Volts
system.cpu_clk_domain.clock                       500                       # Clock period in ticks
system.cpu0.apic_clk_domain.clock                8000                       # Clock period in ticks
system.cpu0.numCycles                      5821712657                       # number of cpu cycles simulated
system.cpu0.numWorkItemsStarted                     0                       # number of work items this cpu started
system.cpu0.numWorkItemsCompleted                   0                       # number of work items this cpu completed
system.cpu0.kern.inst.arm                           0                       # number of arm instructions executed
system.cpu0.kern.inst.quiesce                       0                       # number of quiesce instructions executed
system.cpu0.committedInsts                    2895518                       # Number of instructions committed
system.cpu0.committedOps                      6178402                       # Number of ops (including micro ops) committed
system.cpu0.num_int_alu_accesses              6063268                       # Number of integer alu accesses
system.cpu0.num_fp_alu_accesses                   165                       # Number of float alu accesses
system.cpu0.num_func_calls                     172568                       # number of times a function call or return occured
system.cpu0.num_conditional_control_insts       480110                       # number of instructions that are conditional controls
system.cpu0.num_int_insts                     6063268                       # number of integer instructions
system.cpu0.num_fp_insts                          165                       # number of float instructions
system.cpu0.num_int_register_reads           11994192                       # number of times the integer registers were read
system.cpu0.num_int_register_writes           4979480                       # number of times the integer registers were written
system.cpu0.num_fp_register_reads                 273                       # number of times the floating registers were read
system.cpu0.num_fp_register_writes                133                       # number of times the floating registers were written
system.cpu0.num_cc_register_reads             3722935                       # number of times the CC registers were read
system.cpu0.num_cc_register_writes            1950391                       # number of times the CC registers were written
system.cpu0.num_mem_refs                      1355537                       # number of memory refs
system.cpu0.num_load_insts                     842009                       # Number of load instructions
system.cpu0.num_store_insts                    513528                       # Number of store instructions
system.cpu0.num_idle_cycles              5809631262.049739                       # Number of idle cycles
system.cpu0.num_busy_cycles              12081394.950262                       # Number of busy cycles
system.cpu0.not_idle_fraction                0.002075                       # Percentage of non-idle cycles
system.cpu0.idle_fraction                    0.997925                       # Percentage of idle cycles
system.cpu0.Branches                           703283                       # Number of branches fetched
system.cpu0.op_class::No_OpClass                84937      1.37%      1.37% # Class of executed instruction
system.cpu0.op_class::IntAlu                  4697855     76.04%     77.41% # Class of executed instruction
system.cpu0.op_class::IntMult                   12977      0.21%     77.62% # Class of executed instruction
system.cpu0.op_class::IntDiv                    26999      0.44%     78.06% # Class of executed instruction
system.cpu0.op_class::FloatAdd                    122      0.00%     78.06% # Class of executed instruction
system.cpu0.op_class::FloatCmp                      0      0.00%     78.06% # Class of executed instruction
system.cpu0.op_class::FloatCvt                      0      0.00%     78.06% # Class of executed instruction
system.cpu0.op_class::FloatMult                     0      0.00%     78.06% # Class of executed instruction
system.cpu0.op_class::FloatDiv                      0      0.00%     78.06% # Class of executed instruction
system.cpu0.op_class::FloatSqrt                     0      0.00%     78.06% # Class of executed instruction
system.cpu0.op_class::SimdAdd                       0      0.00%     78.06% # Class of executed instruction
system.cpu0.op_class::SimdAddAcc                    0      0.00%     78.06% # Class of executed instruction
system.cpu0.op_class::SimdAlu                       0      0.00%     78.06% # Class of executed instruction
system.cpu0.op_class::SimdCmp                       0      0.00%     78.06% # Class of executed instruction
system.cpu0.op_class::SimdCvt                       0      0.00%     78.06% # Class of executed instruction
system.cpu0.op_class::SimdMisc                      0      0.00%     78.06% # Class of executed instruction
system.cpu0.op_class::SimdMult                      0      0.00%     78.06% # Class of executed instruction
system.cpu0.op_class::SimdMultAcc                   0      0.00%     78.06% # Class of executed instruction
system.cpu0.op_class::SimdShift                     0      0.00%     78.06% # Class of executed instruction
system.cpu0.op_class::SimdShiftAcc                  0      0.00%     78.06% # Class of executed instruction
system.cpu0.op_class::SimdSqrt                      0      0.00%     78.06% # Class of executed instruction
system.cpu0.op_class::SimdFloatAdd                  0      0.00%     78.06% # Class of executed instruction
system.cpu0.op_class::SimdFloatAlu                  0      0.00%     78.06% # Class of executed instruction
system.cpu0.op_class::SimdFloatCmp                  0      0.00%     78.06% # Class of executed instruction
system.cpu0.op_class::SimdFloatCvt                  0      0.00%     78.06% # Class of executed instruction
system.cpu0.op_class::SimdFloatDiv                  0      0.00%     78.06% # Class of executed instruction
system.cpu0.op_class::SimdFloatMisc                 0      0.00%     78.06% # Class of executed instruction
system.cpu0.op_class::SimdFloatMult                 0      0.00%     78.06% # Class of executed instruction
system.cpu0.op_class::SimdFloatMultAcc              0      0.00%     78.06% # Class of executed instruction
system.cpu0.op_class::SimdFloatSqrt                 0      0.00%     78.06% # Class of executed instruction
system.cpu0.op_class::MemRead                  842009     13.63%     91.69% # Class of executed instruction
system.cpu0.op_class::MemWrite                 513528      8.31%    100.00% # Class of executed instruction
system.cpu0.op_class::IprAccess                     0      0.00%    100.00% # Class of executed instruction
system.cpu0.op_class::InstPrefetch                  0      0.00%    100.00% # Class of executed instruction
system.cpu0.op_class::total                   6178427                       # Class of executed instruction
system.cpu1.apic_clk_domain.clock                8000                       # Clock period in ticks
system.cpu1.numCycles                      5819497224                       # number of cpu cycles simulated
system.cpu1.numWorkItemsStarted                     0                       # number of work items this cpu started
system.cpu1.numWorkItemsCompleted                   0                       # number of work items this cpu completed
system.cpu1.kern.inst.arm                           0                       # number of arm instructions executed
system.cpu1.kern.inst.quiesce                       0                       # number of quiesce instructions executed
system.cpu1.committedInsts                 1522907631                       # Number of instructions committed
system.cpu1.committedOps                   2548220564                       # Number of ops (including micro ops) committed
system.cpu1.num_int_alu_accesses           1952672498                       # Number of integer alu accesses
system.cpu1.num_fp_alu_accesses             965601665                       # Number of float alu accesses
system.cpu1.num_func_calls                   35517397                       # number of times a function call or return occured
system.cpu1.num_conditional_control_insts    171922527                       # number of instructions that are conditional controls
system.cpu1.num_int_insts                  1952672498                       # number of integer instructions
system.cpu1.num_fp_insts                    965601665                       # number of float instructions
system.cpu1.num_int_register_reads         4135843003                       # number of times the integer registers were read
system.cpu1.num_int_register_writes        1332080408                       # number of times the integer registers were written
system.cpu1.num_fp_register_reads          1529965546                       # number of times the floating registers were read
system.cpu1.num_fp_register_writes          790021367                       # number of times the floating registers were written
system.cpu1.num_cc_register_reads          1449440147                       # number of times the CC registers were read
system.cpu1.num_cc_register_writes          551301809                       # number of times the CC registers were written
system.cpu1.num_mem_refs                    645342184                       # number of memory refs
system.cpu1.num_load_insts                  478748920                       # Number of load instructions
system.cpu1.num_store_insts                 166593264                       # Number of store instructions
system.cpu1.num_idle_cycles              4665558.700079                       # Number of idle cycles
system.cpu1.num_busy_cycles              5814831665.299921                       # Number of busy cycles
system.cpu1.not_idle_fraction                0.999198                       # Percentage of non-idle cycles
system.cpu1.idle_fraction                    0.000802                       # Percentage of idle cycles
system.cpu1.Branches                        231844566                       # Number of branches fetched
system.cpu1.op_class::No_OpClass              3402512      0.13%      0.13% # Class of executed instruction
system.cpu1.op_class::IntAlu               1475969469     57.92%     58.06% # Class of executed instruction
system.cpu1.op_class::IntMult                 4735108      0.19%     58.24% # Class of executed instruction
system.cpu1.op_class::IntDiv                 19610370      0.77%     59.01% # Class of executed instruction
system.cpu1.op_class::FloatAdd              398092941     15.62%     74.63% # Class of executed instruction
system.cpu1.op_class::FloatCmp                      0      0.00%     74.63% # Class of executed instruction
system.cpu1.op_class::FloatCvt                      0      0.00%     74.63% # Class of executed instruction
system.cpu1.op_class::FloatMult                     0      0.00%     74.63% # Class of executed instruction
system.cpu1.op_class::FloatDiv                1068156      0.04%     74.67% # Class of executed instruction
system.cpu1.op_class::FloatSqrt                     0      0.00%     74.67% # Class of executed instruction
system.cpu1.op_class::SimdAdd                       0      0.00%     74.67% # Class of executed instruction
system.cpu1.op_class::SimdAddAcc                    0      0.00%     74.67% # Class of executed instruction
system.cpu1.op_class::SimdAlu                       0      0.00%     74.67% # Class of executed instruction
system.cpu1.op_class::SimdCmp                       0      0.00%     74.67% # Class of executed instruction
system.cpu1.op_class::SimdCvt                       0      0.00%     74.67% # Class of executed instruction
system.cpu1.op_class::SimdMisc                      0      0.00%     74.67% # Class of executed instruction
system.cpu1.op_class::SimdMult                      0      0.00%     74.67% # Class of executed instruction
system.cpu1.op_class::SimdMultAcc                   0      0.00%     74.67% # Class of executed instruction
system.cpu1.op_class::SimdShift                     0      0.00%     74.67% # Class of executed instruction
system.cpu1.op_class::SimdShiftAcc                  0      0.00%     74.67% # Class of executed instruction
system.cpu1.op_class::SimdSqrt                      0      0.00%     74.67% # Class of executed instruction
system.cpu1.op_class::SimdFloatAdd                  0      0.00%     74.67% # Class of executed instruction
system.cpu1.op_class::SimdFloatAlu                  0      0.00%     74.67% # Class of executed instruction
system.cpu1.op_class::SimdFloatCmp                  0      0.00%     74.67% # Class of executed instruction
system.cpu1.op_class::SimdFloatCvt                  0      0.00%     74.67% # Class of executed instruction
system.cpu1.op_class::SimdFloatDiv                  0      0.00%     74.67% # Class of executed instruction
system.cpu1.op_class::SimdFloatMisc                 0      0.00%     74.67% # Class of executed instruction
system.cpu1.op_class::SimdFloatMult                 0      0.00%     74.67% # Class of executed instruction
system.cpu1.op_class::SimdFloatMultAcc              0      0.00%     74.67% # Class of executed instruction
system.cpu1.op_class::SimdFloatSqrt                 0      0.00%     74.67% # Class of executed instruction
system.cpu1.op_class::MemRead               478748920     18.79%     93.46% # Class of executed instruction
system.cpu1.op_class::MemWrite              166593264      6.54%    100.00% # Class of executed instruction
system.cpu1.op_class::IprAccess                     0      0.00%    100.00% # Class of executed instruction
system.cpu1.op_class::InstPrefetch                  0      0.00%    100.00% # Class of executed instruction
system.cpu1.op_class::total                2548220740                       # Class of executed instruction
system.cpu2.apic_clk_domain.clock                8000                       # Clock period in ticks
system.cpu2.numCycles                      5814908414                       # number of cpu cycles simulated
system.cpu2.numWorkItemsStarted                     0                       # number of work items this cpu started
system.cpu2.numWorkItemsCompleted                   0                       # number of work items this cpu completed
system.cpu2.kern.inst.arm                           0                       # number of arm instructions executed
system.cpu2.kern.inst.quiesce                       0                       # number of quiesce instructions executed
system.cpu2.committedInsts                    2477385                       # Number of instructions committed
system.cpu2.committedOps                      5277061                       # Number of ops (including micro ops) committed
system.cpu2.num_int_alu_accesses              5175508                       # Number of integer alu accesses
system.cpu2.num_fp_alu_accesses                     0                       # Number of float alu accesses
system.cpu2.num_func_calls                     139274                       # number of times a function call or return occured
system.cpu2.num_conditional_control_insts       427572                       # number of instructions that are conditional controls
system.cpu2.num_int_insts                     5175508                       # number of integer instructions
system.cpu2.num_fp_insts                            0                       # number of float instructions
system.cpu2.num_int_register_reads           10224671                       # number of times the integer registers were read
system.cpu2.num_int_register_writes           4264829                       # number of times the integer registers were written
system.cpu2.num_fp_register_reads                   0                       # number of times the floating registers were read
system.cpu2.num_fp_register_writes                  0                       # number of times the floating registers were written
system.cpu2.num_cc_register_reads             3253612                       # number of times the CC registers were read
system.cpu2.num_cc_register_writes            1654707                       # number of times the CC registers were written
system.cpu2.num_mem_refs                      1153756                       # number of memory refs
system.cpu2.num_load_insts                     722844                       # Number of load instructions
system.cpu2.num_store_insts                    430912                       # Number of store instructions
system.cpu2.num_idle_cycles              5804893192.001553                       # Number of idle cycles
system.cpu2.num_busy_cycles              10015221.998448                       # Number of busy cycles
system.cpu2.not_idle_fraction                0.001722                       # Percentage of non-idle cycles
system.cpu2.idle_fraction                    0.998278                       # Percentage of idle cycles
system.cpu2.Branches                           609700                       # Number of branches fetched
system.cpu2.op_class::No_OpClass                81113      1.54%      1.54% # Class of executed instruction
system.cpu2.op_class::IntAlu                  4004889     75.89%     77.43% # Class of executed instruction
system.cpu2.op_class::IntMult                    9663      0.18%     77.61% # Class of executed instruction
system.cpu2.op_class::IntDiv                    27643      0.52%     78.14% # Class of executed instruction
system.cpu2.op_class::FloatAdd                      0      0.00%     78.14% # Class of executed instruction
system.cpu2.op_class::FloatCmp                      0      0.00%     78.14% # Class of executed instruction
system.cpu2.op_class::FloatCvt                      0      0.00%     78.14% # Class of executed instruction
system.cpu2.op_class::FloatMult                     0      0.00%     78.14% # Class of executed instruction
system.cpu2.op_class::FloatDiv                      0      0.00%     78.14% # Class of executed instruction
system.cpu2.op_class::FloatSqrt                     0      0.00%     78.14% # Class of executed instruction
system.cpu2.op_class::SimdAdd                       0      0.00%     78.14% # Class of executed instruction
system.cpu2.op_class::SimdAddAcc                    0      0.00%     78.14% # Class of executed instruction
system.cpu2.op_class::SimdAlu                       0      0.00%     78.14% # Class of executed instruction
system.cpu2.op_class::SimdCmp                       0      0.00%     78.14% # Class of executed instruction
system.cpu2.op_class::SimdCvt                       0      0.00%     78.14% # Class of executed instruction
system.cpu2.op_class::SimdMisc                      0      0.00%     78.14% # Class of executed instruction
system.cpu2.op_class::SimdMult                      0      0.00%     78.14% # Class of executed instruction
system.cpu2.op_class::SimdMultAcc                   0      0.00%     78.14% # Class of executed instruction
system.cpu2.op_class::SimdShift                     0      0.00%     78.14% # Class of executed instruction
system.cpu2.op_class::SimdShiftAcc                  0      0.00%     78.14% # Class of executed instruction
system.cpu2.op_class::SimdSqrt                      0      0.00%     78.14% # Class of executed instruction
system.cpu2.op_class::SimdFloatAdd                  0      0.00%     78.14% # Class of executed instruction
system.cpu2.op_class::SimdFloatAlu                  0      0.00%     78.14% # Class of executed instruction
system.cpu2.op_class::SimdFloatCmp                  0      0.00%     78.14% # Class of executed instruction
system.cpu2.op_class::SimdFloatCvt                  0      0.00%     78.14% # Class of executed instruction
system.cpu2.op_class::SimdFloatDiv                  0      0.00%     78.14% # Class of executed instruction
system.cpu2.op_class::SimdFloatMisc                 0      0.00%     78.14% # Class of executed instruction
system.cpu2.op_class::SimdFloatMult                 0      0.00%     78.14% # Class of executed instruction
system.cpu2.op_class::SimdFloatMultAcc              0      0.00%     78.14% # Class of executed instruction
system.cpu2.op_class::SimdFloatSqrt                 0      0.00%     78.14% # Class of executed instruction
system.cpu2.op_class::MemRead                  722844     13.70%     91.83% # Class of executed instruction
system.cpu2.op_class::MemWrite                 430912      8.17%    100.00% # Class of executed instruction
system.cpu2.op_class::IprAccess                     0      0.00%    100.00% # Class of executed instruction
system.cpu2.op_class::InstPrefetch                  0      0.00%    100.00% # Class of executed instruction
system.cpu2.op_class::total                   5277064                       # Class of executed instruction
system.cpu3.apic_clk_domain.clock                8000                       # Clock period in ticks
system.cpu3.numCycles                      5816373024                       # number of cpu cycles simulated
system.cpu3.numWorkItemsStarted                     0                       # number of work items this cpu started
system.cpu3.numWorkItemsCompleted                   0                       # number of work items this cpu completed
system.cpu3.kern.inst.arm                           0                       # number of arm instructions executed
system.cpu3.kern.inst.quiesce                       0                       # number of quiesce instructions executed
system.cpu3.committedInsts                    3433433                       # Number of instructions committed
system.cpu3.committedOps                      7080679                       # Number of ops (including micro ops) committed
system.cpu3.num_int_alu_accesses              6951643                       # Number of integer alu accesses
system.cpu3.num_fp_alu_accesses                  1778                       # Number of float alu accesses
system.cpu3.num_func_calls                     173730                       # number of times a function call or return occured
system.cpu3.num_conditional_control_insts       591805                       # number of instructions that are conditional controls
system.cpu3.num_int_insts                     6951643                       # number of integer instructions
system.cpu3.num_fp_insts                         1778                       # number of float instructions
system.cpu3.num_int_register_reads           13799414                       # number of times the integer registers were read
system.cpu3.num_int_register_writes           5706940                       # number of times the integer registers were written
system.cpu3.num_fp_register_reads                2988                       # number of times the floating registers were read
system.cpu3.num_fp_register_writes               1416                       # number of times the floating registers were written
system.cpu3.num_cc_register_reads             4393037                       # number of times the CC registers were read
system.cpu3.num_cc_register_writes            2293700                       # number of times the CC registers were written
system.cpu3.num_mem_refs                      1546802                       # number of memory refs
system.cpu3.num_load_insts                     968262                       # Number of load instructions
system.cpu3.num_store_insts                    578540                       # Number of store instructions
system.cpu3.num_idle_cycles              5801818121.614447                       # Number of idle cycles
system.cpu3.num_busy_cycles              14554902.385554                       # Number of busy cycles
system.cpu3.not_idle_fraction                0.002502                       # Percentage of non-idle cycles
system.cpu3.idle_fraction                    0.997498                       # Percentage of idle cycles
system.cpu3.Branches                           819748                       # Number of branches fetched
system.cpu3.op_class::No_OpClass                96298      1.36%      1.36% # Class of executed instruction
system.cpu3.op_class::IntAlu                  5392697     76.16%     77.52% # Class of executed instruction
system.cpu3.op_class::IntMult                   10740      0.15%     77.67% # Class of executed instruction
system.cpu3.op_class::IntDiv                    32888      0.46%     78.14% # Class of executed instruction
system.cpu3.op_class::FloatAdd                   1344      0.02%     78.15% # Class of executed instruction
system.cpu3.op_class::FloatCmp                      0      0.00%     78.15% # Class of executed instruction
system.cpu3.op_class::FloatCvt                      0      0.00%     78.15% # Class of executed instruction
system.cpu3.op_class::FloatMult                     0      0.00%     78.15% # Class of executed instruction
system.cpu3.op_class::FloatDiv                      0      0.00%     78.15% # Class of executed instruction
system.cpu3.op_class::FloatSqrt                     0      0.00%     78.15% # Class of executed instruction
system.cpu3.op_class::SimdAdd                       0      0.00%     78.15% # Class of executed instruction
system.cpu3.op_class::SimdAddAcc                    0      0.00%     78.15% # Class of executed instruction
system.cpu3.op_class::SimdAlu                       0      0.00%     78.15% # Class of executed instruction
system.cpu3.op_class::SimdCmp                       0      0.00%     78.15% # Class of executed instruction
system.cpu3.op_class::SimdCvt                       0      0.00%     78.15% # Class of executed instruction
system.cpu3.op_class::SimdMisc                      0      0.00%     78.15% # Class of executed instruction
system.cpu3.op_class::SimdMult                      0      0.00%     78.15% # Class of executed instruction
system.cpu3.op_class::SimdMultAcc                   0      0.00%     78.15% # Class of executed instruction
system.cpu3.op_class::SimdShift                     0      0.00%     78.15% # Class of executed instruction
system.cpu3.op_class::SimdShiftAcc                  0      0.00%     78.15% # Class of executed instruction
system.cpu3.op_class::SimdSqrt                      0      0.00%     78.15% # Class of executed instruction
system.cpu3.op_class::SimdFloatAdd                  0      0.00%     78.15% # Class of executed instruction
system.cpu3.op_class::SimdFloatAlu                  0      0.00%     78.15% # Class of executed instruction
system.cpu3.op_class::SimdFloatCmp                  0      0.00%     78.15% # Class of executed instruction
system.cpu3.op_class::SimdFloatCvt                  0      0.00%     78.15% # Class of executed instruction
system.cpu3.op_class::SimdFloatDiv                  0      0.00%     78.15% # Class of executed instruction
system.cpu3.op_class::SimdFloatMisc                 0      0.00%     78.15% # Class of executed instruction
system.cpu3.op_class::SimdFloatMult                 0      0.00%     78.15% # Class of executed instruction
system.cpu3.op_class::SimdFloatMultAcc              0      0.00%     78.15% # Class of executed instruction
system.cpu3.op_class::SimdFloatSqrt                 0      0.00%     78.15% # Class of executed instruction
system.cpu3.op_class::MemRead                  968262     13.67%     91.83% # Class of executed instruction
system.cpu3.op_class::MemWrite                 578540      8.17%    100.00% # Class of executed instruction
system.cpu3.op_class::IprAccess                     0      0.00%    100.00% # Class of executed instruction
system.cpu3.op_class::InstPrefetch                  0      0.00%    100.00% # Class of executed instruction
system.cpu3.op_class::total                   7080769                       # Class of executed instruction
system.iobus.trans_dist::ReadReq                  863                       # Transaction distribution
system.iobus.trans_dist::ReadResp                 863                       # Transaction distribution
system.iobus.trans_dist::WriteReq                4539                       # Transaction distribution
system.iobus.trans_dist::WriteResp               4539                       # Transaction distribution
system.iobus.trans_dist::MessageReq               110                       # Transaction distribution
system.iobus.trans_dist::MessageResp              110                       # Transaction distribution
system.iobus.pkt_count_system.pc.south_bridge.io_apic.int_master::system.ruby.l1_cntrl0.sequencer.pio-slave-port           52                       # Packet count per connected master and slave (bytes)
system.iobus.pkt_count_system.pc.south_bridge.io_apic.int_master::system.ruby.l1_cntrl1.sequencer.pio-slave-port           50                       # Packet count per connected master and slave (bytes)
system.iobus.pkt_count_system.pc.south_bridge.io_apic.int_master::system.ruby.l1_cntrl2.sequencer.pio-slave-port           50                       # Packet count per connected master and slave (bytes)
system.iobus.pkt_count_system.pc.south_bridge.io_apic.int_master::system.ruby.l1_cntrl3.sequencer.pio-slave-port           50                       # Packet count per connected master and slave (bytes)
system.iobus.pkt_count_system.pc.south_bridge.io_apic.int_master::total          202                       # Packet count per connected master and slave (bytes)
system.iobus.pkt_count_system.ruby.l1_cntrl0.sequencer.mem-master-port::system.pc.south_bridge.ide.pio         1048                       # Packet count per connected master and slave (bytes)
system.iobus.pkt_count_system.ruby.l1_cntrl0.sequencer.mem-master-port::system.pc.south_bridge.io_apic.pio            8                       # Packet count per connected master and slave (bytes)
system.iobus.pkt_count_system.ruby.l1_cntrl0.sequencer.mem-master-port::system.pc.com_1.pio            2                       # Packet count per connected master and slave (bytes)
system.iobus.pkt_count_system.ruby.l1_cntrl0.sequencer.mem-master-port::system.ruby.l1_cntrl0.sequencer.pio-slave-port         1522                       # Packet count per connected master and slave (bytes)
system.iobus.pkt_count_system.ruby.l1_cntrl0.sequencer.mem-master-port::system.ruby.l1_cntrl1.sequencer.pio-slave-port            2                       # Packet count per connected master and slave (bytes)
system.iobus.pkt_count_system.ruby.l1_cntrl0.sequencer.mem-master-port::total         2582                       # Packet count per connected master and slave (bytes)
system.iobus.pkt_count_system.ruby.l1_cntrl1.sequencer.mem-master-port::system.pc.south_bridge.ide.pio         1558                       # Packet count per connected master and slave (bytes)
system.iobus.pkt_count_system.ruby.l1_cntrl1.sequencer.mem-master-port::system.ruby.l1_cntrl0.sequencer.pio-slave-port            6                       # Packet count per connected master and slave (bytes)
system.iobus.pkt_count_system.ruby.l1_cntrl1.sequencer.mem-master-port::system.ruby.l1_cntrl1.sequencer.pio-slave-port         1534                       # Packet count per connected master and slave (bytes)
system.iobus.pkt_count_system.ruby.l1_cntrl1.sequencer.mem-master-port::system.ruby.l1_cntrl2.sequencer.pio-slave-port            2                       # Packet count per connected master and slave (bytes)
system.iobus.pkt_count_system.ruby.l1_cntrl1.sequencer.mem-master-port::total         3100                       # Packet count per connected master and slave (bytes)
system.iobus.pkt_count_system.ruby.l1_cntrl2.sequencer.mem-master-port::system.pc.south_bridge.ide.pio          934                       # Packet count per connected master and slave (bytes)
system.iobus.pkt_count_system.ruby.l1_cntrl2.sequencer.mem-master-port::system.pc.south_bridge.io_apic.pio            6                       # Packet count per connected master and slave (bytes)
system.iobus.pkt_count_system.ruby.l1_cntrl2.sequencer.mem-master-port::system.pc.com_1.pio          174                       # Packet count per connected master and slave (bytes)
system.iobus.pkt_count_system.ruby.l1_cntrl2.sequencer.mem-master-port::system.ruby.l1_cntrl2.sequencer.pio-slave-port         1516                       # Packet count per connected master and slave (bytes)
system.iobus.pkt_count_system.ruby.l1_cntrl2.sequencer.mem-master-port::system.ruby.l1_cntrl3.sequencer.pio-slave-port            2                       # Packet count per connected master and slave (bytes)
system.iobus.pkt_count_system.ruby.l1_cntrl2.sequencer.mem-master-port::total         2632                       # Packet count per connected master and slave (bytes)
system.iobus.pkt_count_system.ruby.l1_cntrl3.sequencer.mem-master-port::system.pc.south_bridge.ide.pio          968                       # Packet count per connected master and slave (bytes)
system.iobus.pkt_count_system.ruby.l1_cntrl3.sequencer.mem-master-port::system.pc.south_bridge.io_apic.pio            8                       # Packet count per connected master and slave (bytes)
system.iobus.pkt_count_system.ruby.l1_cntrl3.sequencer.mem-master-port::system.ruby.l1_cntrl0.sequencer.pio-slave-port            2                       # Packet count per connected master and slave (bytes)
system.iobus.pkt_count_system.ruby.l1_cntrl3.sequencer.mem-master-port::system.ruby.l1_cntrl1.sequencer.pio-slave-port            2                       # Packet count per connected master and slave (bytes)
system.iobus.pkt_count_system.ruby.l1_cntrl3.sequencer.mem-master-port::system.ruby.l1_cntrl2.sequencer.pio-slave-port            2                       # Packet count per connected master and slave (bytes)
system.iobus.pkt_count_system.ruby.l1_cntrl3.sequencer.mem-master-port::system.ruby.l1_cntrl3.sequencer.pio-slave-port         1526                       # Packet count per connected master and slave (bytes)
system.iobus.pkt_count_system.ruby.l1_cntrl3.sequencer.mem-master-port::total         2508                       # Packet count per connected master and slave (bytes)
system.iobus.pkt_count::total                   11024                       # Packet count per connected master and slave (bytes)
system.iobus.pkt_size_system.pc.south_bridge.io_apic.int_master::system.ruby.l1_cntrl0.sequencer.pio-slave-port          104                       # Cumulative packet size per connected master and slave (bytes)
system.iobus.pkt_size_system.pc.south_bridge.io_apic.int_master::system.ruby.l1_cntrl1.sequencer.pio-slave-port          100                       # Cumulative packet size per connected master and slave (bytes)
system.iobus.pkt_size_system.pc.south_bridge.io_apic.int_master::system.ruby.l1_cntrl2.sequencer.pio-slave-port          100                       # Cumulative packet size per connected master and slave (bytes)
system.iobus.pkt_size_system.pc.south_bridge.io_apic.int_master::system.ruby.l1_cntrl3.sequencer.pio-slave-port          100                       # Cumulative packet size per connected master and slave (bytes)
system.iobus.pkt_size_system.pc.south_bridge.io_apic.int_master::total          404                       # Cumulative packet size per connected master and slave (bytes)
system.iobus.pkt_size_system.ruby.l1_cntrl0.sequencer.mem-master-port::system.pc.south_bridge.ide.pio          590                       # Cumulative packet size per connected master and slave (bytes)
system.iobus.pkt_size_system.ruby.l1_cntrl0.sequencer.mem-master-port::system.pc.south_bridge.io_apic.pio           16                       # Cumulative packet size per connected master and slave (bytes)
system.iobus.pkt_size_system.ruby.l1_cntrl0.sequencer.mem-master-port::system.pc.com_1.pio            1                       # Cumulative packet size per connected master and slave (bytes)
system.iobus.pkt_size_system.ruby.l1_cntrl0.sequencer.mem-master-port::system.ruby.l1_cntrl0.sequencer.pio-slave-port         3044                       # Cumulative packet size per connected master and slave (bytes)
system.iobus.pkt_size_system.ruby.l1_cntrl0.sequencer.mem-master-port::system.ruby.l1_cntrl1.sequencer.pio-slave-port            4                       # Cumulative packet size per connected master and slave (bytes)
system.iobus.pkt_size_system.ruby.l1_cntrl0.sequencer.mem-master-port::total         3655                       # Cumulative packet size per connected master and slave (bytes)
system.iobus.pkt_size_system.ruby.l1_cntrl1.sequencer.mem-master-port::system.pc.south_bridge.ide.pio          890                       # Cumulative packet size per connected master and slave (bytes)
system.iobus.pkt_size_system.ruby.l1_cntrl1.sequencer.mem-master-port::system.ruby.l1_cntrl0.sequencer.pio-slave-port           12                       # Cumulative packet size per connected master and slave (bytes)
system.iobus.pkt_size_system.ruby.l1_cntrl1.sequencer.mem-master-port::system.ruby.l1_cntrl1.sequencer.pio-slave-port         3068                       # Cumulative packet size per connected master and slave (bytes)
system.iobus.pkt_size_system.ruby.l1_cntrl1.sequencer.mem-master-port::system.ruby.l1_cntrl2.sequencer.pio-slave-port            4                       # Cumulative packet size per connected master and slave (bytes)
system.iobus.pkt_size_system.ruby.l1_cntrl1.sequencer.mem-master-port::total         3974                       # Cumulative packet size per connected master and slave (bytes)
system.iobus.pkt_size_system.ruby.l1_cntrl2.sequencer.mem-master-port::system.pc.south_bridge.ide.pio          524                       # Cumulative packet size per connected master and slave (bytes)
system.iobus.pkt_size_system.ruby.l1_cntrl2.sequencer.mem-master-port::system.pc.south_bridge.io_apic.pio           12                       # Cumulative packet size per connected master and slave (bytes)
system.iobus.pkt_size_system.ruby.l1_cntrl2.sequencer.mem-master-port::system.pc.com_1.pio           87                       # Cumulative packet size per connected master and slave (bytes)
system.iobus.pkt_size_system.ruby.l1_cntrl2.sequencer.mem-master-port::system.ruby.l1_cntrl2.sequencer.pio-slave-port         3032                       # Cumulative packet size per connected master and slave (bytes)
system.iobus.pkt_size_system.ruby.l1_cntrl2.sequencer.mem-master-port::system.ruby.l1_cntrl3.sequencer.pio-slave-port            4                       # Cumulative packet size per connected master and slave (bytes)
system.iobus.pkt_size_system.ruby.l1_cntrl2.sequencer.mem-master-port::total         3659                       # Cumulative packet size per connected master and slave (bytes)
system.iobus.pkt_size_system.ruby.l1_cntrl3.sequencer.mem-master-port::system.pc.south_bridge.ide.pio          544                       # Cumulative packet size per connected master and slave (bytes)
system.iobus.pkt_size_system.ruby.l1_cntrl3.sequencer.mem-master-port::system.pc.south_bridge.io_apic.pio           16                       # Cumulative packet size per connected master and slave (bytes)
system.iobus.pkt_size_system.ruby.l1_cntrl3.sequencer.mem-master-port::system.ruby.l1_cntrl0.sequencer.pio-slave-port            4                       # Cumulative packet size per connected master and slave (bytes)
system.iobus.pkt_size_system.ruby.l1_cntrl3.sequencer.mem-master-port::system.ruby.l1_cntrl1.sequencer.pio-slave-port            4                       # Cumulative packet size per connected master and slave (bytes)
system.iobus.pkt_size_system.ruby.l1_cntrl3.sequencer.mem-master-port::system.ruby.l1_cntrl2.sequencer.pio-slave-port            4                       # Cumulative packet size per connected master and slave (bytes)
system.iobus.pkt_size_system.ruby.l1_cntrl3.sequencer.mem-master-port::system.ruby.l1_cntrl3.sequencer.pio-slave-port         3052                       # Cumulative packet size per connected master and slave (bytes)
system.iobus.pkt_size_system.ruby.l1_cntrl3.sequencer.mem-master-port::total         3624                       # Cumulative packet size per connected master and slave (bytes)
system.iobus.pkt_size::total                    15316                       # Cumulative packet size per connected master and slave (bytes)
system.iobus.reqLayer2.occupancy              3909000                       # Layer occupancy (ticks)
system.iobus.reqLayer2.utilization                0.0                       # Layer utilization (%)
system.iobus.reqLayer8.occupancy                20497                       # Layer occupancy (ticks)
system.iobus.reqLayer8.utilization                0.0                       # Layer utilization (%)
system.iobus.reqLayer12.occupancy              113500                       # Layer occupancy (ticks)
system.iobus.reqLayer12.utilization               0.0                       # Layer utilization (%)
system.iobus.reqLayer17.occupancy             1965474                       # Layer occupancy (ticks)
system.iobus.reqLayer17.utilization               0.0                       # Layer utilization (%)
system.iobus.reqLayer18.occupancy             2157764                       # Layer occupancy (ticks)
system.iobus.reqLayer18.utilization               0.0                       # Layer utilization (%)
system.iobus.reqLayer19.occupancy             1957976                       # Layer occupancy (ticks)
system.iobus.reqLayer19.utilization               0.0                       # Layer utilization (%)
system.iobus.reqLayer20.occupancy             1965974                       # Layer occupancy (ticks)
system.iobus.reqLayer20.utilization               0.0                       # Layer utilization (%)
system.iobus.respLayer0.occupancy              177902                       # Layer occupancy (ticks)
system.iobus.respLayer0.utilization               0.0                       # Layer utilization (%)
system.iobus.respLayer2.occupancy             1862500                       # Layer occupancy (ticks)
system.iobus.respLayer2.utilization               0.0                       # Layer utilization (%)
system.iobus.respLayer4.occupancy             2185500                       # Layer occupancy (ticks)
system.iobus.respLayer4.utilization               0.0                       # Layer utilization (%)
system.iobus.respLayer6.occupancy             1934000                       # Layer occupancy (ticks)
system.iobus.respLayer6.utilization               0.0                       # Layer utilization (%)
system.iobus.respLayer8.occupancy             1816500                       # Layer occupancy (ticks)
system.iobus.respLayer8.utilization               0.0                       # Layer utilization (%)
system.pc.south_bridge.ide.disks.dma_read_full_pages         1522                       # Number of full page size DMA reads (not PRD).
system.pc.south_bridge.ide.disks.dma_read_bytes      6234112                       # Number of bytes transfered via DMA reads (not PRD).
system.pc.south_bridge.ide.disks.dma_read_txs         1522                       # Number of DMA read transactions (not PRD).
system.pc.south_bridge.ide.disks.dma_write_full_pages           45                       # Number of full page size DMA writes.
system.pc.south_bridge.ide.disks.dma_write_bytes       184320                       # Number of bytes transfered via DMA writes.
system.pc.south_bridge.ide.disks.dma_write_txs           45                       # Number of DMA write transactions.
system.ruby.clk_domain.clock                      500                       # Clock period in ticks
system.ruby.outstanding_req_hist_seqr::bucket_size            1                      
system.ruby.outstanding_req_hist_seqr::max_bucket            9                      
system.ruby.outstanding_req_hist_seqr::samples   2881681716                      
system.ruby.outstanding_req_hist_seqr::mean     1.000000                      
system.ruby.outstanding_req_hist_seqr::gmean     1.000000                      
system.ruby.outstanding_req_hist_seqr::stdev     0.000274                      
system.ruby.outstanding_req_hist_seqr    |           0      0.00%      0.00% |  2881681500    100.00%    100.00% |         216      0.00%    100.00% |           0      0.00%    100.00% |           0      0.00%    100.00% |           0      0.00%    100.00% |           0      0.00%    100.00% |           0      0.00%    100.00% |           0      0.00%    100.00% |           0      0.00%    100.00%
system.ruby.outstanding_req_hist_seqr::total   2881681716                      
system.ruby.latency_hist_seqr::bucket_size          128                      
system.ruby.latency_hist_seqr::max_bucket         1279                      
system.ruby.latency_hist_seqr::samples     2881681716                      
system.ruby.latency_hist_seqr::mean          1.029890                      
system.ruby.latency_hist_seqr::gmean         1.004828                      
system.ruby.latency_hist_seqr::stdev         0.961309                      
system.ruby.latency_hist_seqr            |  2881656939    100.00%    100.00% |       23407      0.00%    100.00% |         345      0.00%    100.00% |         293      0.00%    100.00% |         521      0.00%    100.00% |         208      0.00%    100.00% |           2      0.00%    100.00% |           1      0.00%    100.00% |           0      0.00%    100.00% |           0      0.00%    100.00%
system.ruby.latency_hist_seqr::total       2881681716                      
system.ruby.hit_latency_hist_seqr::bucket_size            1                      
system.ruby.hit_latency_hist_seqr::max_bucket            9                      
system.ruby.hit_latency_hist_seqr::samples   2876846950                      
system.ruby.hit_latency_hist_seqr::mean             1                      
system.ruby.hit_latency_hist_seqr::gmean            1                      
[...]
system.ruby.L1Cache_Controller.S.Inv::total        18476                      
system.ruby.L1Cache_Controller.O.Load    |        1971      9.32%      9.32% |        1371      6.48%     15.81% |       11793     55.77%     71.58% |        6010     28.42%    100.00%
system.ruby.L1Cache_Controller.O.Load::total        21145                      
system.ruby.L1Cache_Controller.O.Store   |         100     34.97%     34.97% |         126     44.06%     79.02% |          13      4.55%     83.57% |          47     16.43%    100.00%
system.ruby.L1Cache_Controller.O.Store::total          286                      
system.ruby.L1Cache_Controller.O.L1_Replacement |         266     29.33%     29.33% |         203     22.38%     51.71% |         225     24.81%     76.52% |         213     23.48%    100.00%
system.ruby.L1Cache_Controller.O.L1_Replacement::total          907                      
system.ruby.L1Cache_Controller.O.Fwd_GETX |        3186     20.06%     20.06% |         389      2.45%     22.51% |        4895     30.82%     53.32% |        7415     46.68%    100.00%
system.ruby.L1Cache_Controller.O.Fwd_GETX::total        15885                      
system.ruby.L1Cache_Controller.O.Fwd_GETS |        1703     11.65%     11.65% |         247      1.69%     13.34% |        5117     35.00%     48.34% |        7552     51.66%    100.00%
system.ruby.L1Cache_Controller.O.Fwd_GETS::total        14619                      
system.ruby.L1Cache_Controller.M.Load    |       49319      1.54%      1.54% |     2976898     93.22%     94.77% |       64221      2.01%     96.78% |      102919      3.22%    100.00%
system.ruby.L1Cache_Controller.M.Load::total      3193357                      
system.ruby.L1Cache_Controller.M.Store   |        3947      8.17%      8.17% |       29969     62.07%     70.24% |        5092     10.55%     80.79% |        9275     19.21%    100.00%
system.ruby.L1Cache_Controller.M.Store::total        48283                      
system.ruby.L1Cache_Controller.M.L1_Replacement |        2408      1.12%      1.12% |      204419     95.36%     96.48% |        2687      1.25%     97.73% |        4862      2.27%    100.00%
system.ruby.L1Cache_Controller.M.L1_Replacement::total       214376                      
system.ruby.L1Cache_Controller.M.Fwd_GETX |         189     12.51%     12.51% |         187     12.38%     24.88% |         195     12.91%     37.79% |         940     62.21%    100.00%
system.ruby.L1Cache_Controller.M.Fwd_GETX::total         1511                      
system.ruby.L1Cache_Controller.M.Fwd_GETS |        3545     20.85%     20.85% |         724      4.26%     25.10% |        5033     29.60%     54.70% |        7703     45.30%    100.00%
system.ruby.L1Cache_Controller.M.Fwd_GETS::total        17005                      
system.ruby.L1Cache_Controller.M_W.Load  |        7599      7.32%      7.32% |       69772     67.21%     74.53% |       10432     10.05%     84.58% |       16003     15.42%    100.00%
system.ruby.L1Cache_Controller.M_W.Load::total       103806                      
system.ruby.L1Cache_Controller.M_W.Store |        1244      6.20%      6.20% |       15320     76.36%     82.56% |        1335      6.65%     89.22% |        2163     10.78%    100.00%
system.ruby.L1Cache_Controller.M_W.Store::total        20062                      
system.ruby.L1Cache_Controller.M_W.Fwd_GETX |           9      9.78%      9.78% |          83     90.22%    100.00% |           0      0.00%    100.00% |           0      0.00%    100.00%
system.ruby.L1Cache_Controller.M_W.Fwd_GETX::total           92                      
system.ruby.L1Cache_Controller.M_W.Fwd_GETS |         191     32.21%     32.21% |         344     58.01%     90.22% |          11      1.85%     92.07% |          47      7.93%    100.00%
system.ruby.L1Cache_Controller.M_W.Fwd_GETS::total          593                      
system.ruby.L1Cache_Controller.M_W.Use_Timeout |       10203      3.63%      3.63% |      235330     83.69%     87.32% |       12980      4.62%     91.93% |       22679      8.07%    100.00%
system.ruby.L1Cache_Controller.M_W.Use_Timeout::total       281192                      
system.ruby.L1Cache_Controller.MM.Load   |      788293      0.38%      0.38% |   202594687     98.13%     98.51% |      841978      0.41%     98.92% |     2224093      1.08%    100.00%
system.ruby.L1Cache_Controller.MM.Load::total    206449051                      
system.ruby.L1Cache_Controller.MM.Store  |      775777      0.45%      0.45% |   168299508     97.69%     98.14% |      904335      0.52%     98.66% |     2302594      1.34%    100.00%
system.ruby.L1Cache_Controller.MM.Store::total    172282214                      
system.ruby.L1Cache_Controller.MM.L1_Replacement |       13863      5.63%      5.63% |      181661     73.82%     79.46% |       19284      7.84%     87.29% |       31265     12.71%    100.00%
system.ruby.L1Cache_Controller.MM.L1_Replacement::total       246073                      
system.ruby.L1Cache_Controller.MM.Fwd_GETX |        1595     21.77%     21.77% |        1771     24.17%     45.95% |        1246     17.01%     62.95% |        2714     37.05%    100.00%
system.ruby.L1Cache_Controller.MM.Fwd_GETX::total         7326                      
system.ruby.L1Cache_Controller.MM.Fwd_GETS |        9339     38.41%     38.41% |        3954     16.26%     54.67% |        4826     19.85%     74.52% |        6196     25.48%    100.00%
system.ruby.L1Cache_Controller.MM.Fwd_GETS::total        24315                      
system.ruby.L1Cache_Controller.MM.Fwd_DMA |         276     32.13%     32.13% |         198     23.05%     55.18% |         184     21.42%     76.60% |         201     23.40%    100.00%
system.ruby.L1Cache_Controller.MM.Fwd_DMA::total          859                      
system.ruby.L1Cache_Controller.MM_W.Load |        2676     10.21%     10.21% |       16678     63.64%     73.85% |        1465      5.59%     79.44% |        5388     20.56%    100.00%
system.ruby.L1Cache_Controller.MM_W.Load::total        26207                      
system.ruby.L1Cache_Controller.MM_W.Store |       66395     12.45%     12.45% |      275543     51.66%     64.11% |       78774     14.77%     78.88% |      112664     21.12%    100.00%
system.ruby.L1Cache_Controller.MM_W.Store::total       533376                      
system.ruby.L1Cache_Controller.MM_W.Fwd_GETX |           2      5.56%      5.56% |          25     69.44%     75.00% |           0      0.00%     75.00% |           9     25.00%    100.00%
system.ruby.L1Cache_Controller.MM_W.Fwd_GETX::total           36                      
system.ruby.L1Cache_Controller.MM_W.Fwd_GETS |        1080     34.37%     34.37% |        1145     36.44%     70.81% |         787     25.05%     95.86% |         130      4.14%    100.00%
system.ruby.L1Cache_Controller.MM_W.Fwd_GETS::total         3142                      
system.ruby.L1Cache_Controller.MM_W.Use_Timeout |       21141      9.21%      9.21% |      157179     68.51%     77.72% |       20491      8.93%     86.66% |       30617     13.34%    100.00%
system.ruby.L1Cache_Controller.MM_W.Use_Timeout::total       229428                      
system.ruby.L1Cache_Controller.IM.Ack    |        7675     36.38%     36.38% |        3449     16.35%     52.74% |        4490     21.29%     74.02% |        5480     25.98%    100.00%
system.ruby.L1Cache_Controller.IM.Ack::total        21094                      
system.ruby.L1Cache_Controller.IM.Exclusive_Data |       14170      7.86%      7.86% |      131153     72.77%     80.63% |       13210      7.33%     87.96% |       21706     12.04%    100.00%
system.ruby.L1Cache_Controller.IM.Exclusive_Data::total       180239                      
system.ruby.L1Cache_Controller.SM.Inv    |           0      0.00%      0.00% |           1    100.00%    100.00% |           0      0.00%    100.00% |           0      0.00%    100.00%
system.ruby.L1Cache_Controller.SM.Inv::total            1                      
system.ruby.L1Cache_Controller.SM.Ack    |        8858     44.56%     44.56% |        4725     23.77%     68.34% |        3163     15.91%     84.25% |        3131     15.75%    100.00%
system.ruby.L1Cache_Controller.SM.Ack::total        19877                      
system.ruby.L1Cache_Controller.SM.Exclusive_Data |        5627     19.51%     19.51% |       10580     36.68%     56.19% |        5933     20.57%     76.77% |        6701     23.23%    100.00%
system.ruby.L1Cache_Controller.SM.Exclusive_Data::total        28841                      
system.ruby.L1Cache_Controller.OM.Own_GETX |         100     34.97%     34.97% |         126     44.06%     79.02% |          13      4.55%     83.57% |          47     16.43%    100.00%
system.ruby.L1Cache_Controller.OM.Own_GETX::total          286                      
system.ruby.L1Cache_Controller.OM.Ack    |         697     28.65%     28.65% |         911     37.44%     66.09% |         389     15.99%     82.08% |         436     17.92%    100.00%
system.ruby.L1Cache_Controller.OM.Ack::total         2433                      
system.ruby.L1Cache_Controller.OM.All_acks |       19897      9.50%      9.50% |      141859     67.76%     77.26% |       19156      9.15%     86.41% |       28454     13.59%    100.00%
system.ruby.L1Cache_Controller.OM.All_acks::total       209366                      
system.ruby.L1Cache_Controller.IS.Data   |       84358      1.86%      1.86% |     4260955     93.73%     95.59% |       83459      1.84%     97.42% |      117170      2.58%    100.00%
system.ruby.L1Cache_Controller.IS.Data::total      4545942                      
system.ruby.L1Cache_Controller.IS.Exclusive_Data |       11447      3.80%      3.80% |      250650     83.20%     87.00% |       14315      4.75%     91.75% |       24842      8.25%    100.00%
system.ruby.L1Cache_Controller.IS.Exclusive_Data::total       301254                      
system.ruby.L1Cache_Controller.SI.Load   |           1      0.63%      0.63% |         155     98.10%     98.73% |           0      0.00%     98.73% |           2      1.27%    100.00%
system.ruby.L1Cache_Controller.SI.Load::total          158                      
system.ruby.L1Cache_Controller.SI.Ifetch |           0      0.00%      0.00% |           0      0.00%      0.00% |           6    100.00%    100.00% |           0      0.00%    100.00%
system.ruby.L1Cache_Controller.SI.Ifetch::total            6                      
system.ruby.L1Cache_Controller.SI.Writeback_Ack |       66585      1.51%      1.51% |     4210815     95.68%     97.20% |       61299      1.39%     98.59% |       62094      1.41%    100.00%
system.ruby.L1Cache_Controller.SI.Writeback_Ack::total      4400793                      
system.ruby.L1Cache_Controller.SI.Writeback_Ack_Data |        7167      7.35%      7.35% |       37478     38.44%     45.79% |        9473      9.71%     55.50% |       43392     44.50%    100.00%
system.ruby.L1Cache_Controller.SI.Writeback_Ack_Data::total        97510                      
system.ruby.L1Cache_Controller.OI.Writeback_Ack_Data |         266     29.33%     29.33% |         203     22.38%     51.71% |         225     24.81%     76.52% |         213     23.48%    100.00%
system.ruby.L1Cache_Controller.OI.Writeback_Ack_Data::total          907                      
system.ruby.L1Cache_Controller.MI.Load   |           1     20.00%     20.00% |           3     60.00%     80.00% |           1     20.00%    100.00% |           0      0.00%    100.00%
system.ruby.L1Cache_Controller.MI.Load::total            5                      
system.ruby.L1Cache_Controller.MI.Writeback_Ack_Data |       16271      3.53%      3.53% |      386080     83.85%     87.38% |       21971      4.77%     92.15% |       36127      7.85%    100.00%
system.ruby.L1Cache_Controller.MI.Writeback_Ack_Data::total       460449                      
system.ruby.L2Cache_Controller.L1_GETS        4847707      0.00%      0.00%
system.ruby.L2Cache_Controller.L1_GETX         209377      0.00%      0.00%
system.ruby.L2Cache_Controller.L1_PUTO            907      0.00%      0.00%
system.ruby.L2Cache_Controller.L1_PUTX         460449      0.00%      0.00%
system.ruby.L2Cache_Controller.L1_PUTS_only      4323545      0.00%      0.00%
system.ruby.L2Cache_Controller.L1_PUTS         174773      0.00%      0.00%
system.ruby.L2Cache_Controller.Fwd_GETX           192      0.00%      0.00%
system.ruby.L2Cache_Controller.Fwd_DMA           1333      0.00%      0.00%
system.ruby.L2Cache_Controller.All_Acks         46396      0.00%      0.00%
system.ruby.L2Cache_Controller.Data            158995      0.00%      0.00%
system.ruby.L2Cache_Controller.Data_Exclusive           81      0.00%      0.00%
system.ruby.L2Cache_Controller.L1_WBCLEANDATA        97510      0.00%      0.00%
system.ruby.L2Cache_Controller.L1_WBDIRTYDATA       461356      0.00%      0.00%
system.ruby.L2Cache_Controller.Writeback_Ack        35462      0.00%      0.00%
system.ruby.L2Cache_Controller.Unblock        8946735      0.00%      0.00%
system.ruby.L2Cache_Controller.Exclusive_Unblock       510620      0.00%      0.00%
system.ruby.L2Cache_Controller.DmaAck             859      0.00%      0.00%
system.ruby.L2Cache_Controller.L2_Replacement       122476      0.00%      0.00%
system.ruby.L2Cache_Controller.NP.L1_GETS       112596      0.00%      0.00%
system.ruby.L2Cache_Controller.NP.L1_GETX        24728      0.00%      0.00%
system.ruby.L2Cache_Controller.I.L1_GETS            3      0.00%      0.00%
system.ruby.L2Cache_Controller.ILS.L1_GETS         4056      0.00%      0.00%
system.ruby.L2Cache_Controller.ILS.L1_GETX        17942      0.00%      0.00%
system.ruby.L2Cache_Controller.ILS.L1_PUTS_only        93836      0.00%      0.00%
system.ruby.L2Cache_Controller.ILS.L1_PUTS         3674      0.00%      0.00%
system.ruby.L2Cache_Controller.ILX.L1_GETS        41320      0.00%      0.00%
system.ruby.L2Cache_Controller.ILX.L1_GETX         8837      0.00%      0.00%
system.ruby.L2Cache_Controller.ILX.L1_PUTX       460449      0.00%      0.00%
system.ruby.L2Cache_Controller.ILX.Fwd_DMA          859      0.00%      0.00%
system.ruby.L2Cache_Controller.ILOX.L1_GETS         2528      0.00%      0.00%
system.ruby.L2Cache_Controller.ILOX.L1_GETX           99      0.00%      0.00%
system.ruby.L2Cache_Controller.ILOX.L1_PUTO          463      0.00%      0.00%
system.ruby.L2Cache_Controller.ILOX.Fwd_GETX           81      0.00%      0.00%
system.ruby.L2Cache_Controller.ILOSX.L1_GETS        12091      0.00%      0.00%
system.ruby.L2Cache_Controller.ILOSX.L1_GETX        15991      0.00%      0.00%
system.ruby.L2Cache_Controller.ILOSX.L1_PUTO          444      0.00%      0.00%
system.ruby.L2Cache_Controller.ILOSX.L1_PUTS_only         3202      0.00%      0.00%
system.ruby.L2Cache_Controller.ILOSX.L1_PUTS          875      0.00%      0.00%
system.ruby.L2Cache_Controller.S.L1_GETS      4227277      0.00%      0.00%
system.ruby.L2Cache_Controller.S.L1_GETX         2225      0.00%      0.00%
system.ruby.L2Cache_Controller.S.L2_Replacement        84118      0.00%      0.00%
system.ruby.L2Cache_Controller.OLSX.L1_GETS         1504      0.00%      0.00%
system.ruby.L2Cache_Controller.OLSX.L1_GETX          127      0.00%      0.00%
system.ruby.L2Cache_Controller.OLSX.L1_PUTS_only          305      0.00%      0.00%
system.ruby.L2Cache_Controller.OLSX.L1_PUTS         1432      0.00%      0.00%
system.ruby.L2Cache_Controller.OLSX.L2_Replacement           45      0.00%      0.00%
system.ruby.L2Cache_Controller.SLS.L1_GETS       168882      0.00%      0.00%
system.ruby.L2Cache_Controller.SLS.L1_GETX         1501      0.00%      0.00%
system.ruby.L2Cache_Controller.SLS.L1_PUTS_only      4226200      0.00%      0.00%
system.ruby.L2Cache_Controller.SLS.L1_PUTS       168779      0.00%      0.00%
system.ruby.L2Cache_Controller.SLS.L2_Replacement         2896      0.00%      0.00%
system.ruby.L2Cache_Controller.M.L1_GETS       276939      0.00%      0.00%
system.ruby.L2Cache_Controller.M.L1_GETX       137916      0.00%      0.00%
system.ruby.L2Cache_Controller.M.Fwd_GETX          111      0.00%      0.00%
system.ruby.L2Cache_Controller.M.Fwd_DMA          474      0.00%      0.00%
system.ruby.L2Cache_Controller.M.L2_Replacement        35417      0.00%      0.00%
system.ruby.L2Cache_Controller.IFGX.Data_Exclusive           81      0.00%      0.00%
system.ruby.L2Cache_Controller.ILOXW.L1_WBDIRTYDATA          463      0.00%      0.00%
system.ruby.L2Cache_Controller.ILOXW.Unblock         3202      0.00%      0.00%
system.ruby.L2Cache_Controller.ILOSXW.L1_WBDIRTYDATA          444      0.00%      0.00%
system.ruby.L2Cache_Controller.ILOSXW.Unblock          875      0.00%      0.00%
system.ruby.L2Cache_Controller.SLSW.L1_PUTS            7      0.00%      0.00%
system.ruby.L2Cache_Controller.SLSW.Unblock       168779      0.00%      0.00%
system.ruby.L2Cache_Controller.ILSW.L1_WBCLEANDATA         3674      0.00%      0.00%
system.ruby.L2Cache_Controller.IW.L1_WBCLEANDATA        93836      0.00%      0.00%
system.ruby.L2Cache_Controller.SW.L1_GETS           13      0.00%      0.00%
system.ruby.L2Cache_Controller.SW.Unblock      4226200      0.00%      0.00%
system.ruby.L2Cache_Controller.OXW.Unblock          305      0.00%      0.00%
system.ruby.L2Cache_Controller.OLSXW.Unblock         1432      0.00%      0.00%
system.ruby.L2Cache_Controller.ILXW.L1_WBDIRTYDATA       460449      0.00%      0.00%
system.ruby.L2Cache_Controller.IFLS.Unblock         4056      0.00%      0.00%
system.ruby.L2Cache_Controller.IFLOX.Unblock         2528      0.00%      0.00%
system.ruby.L2Cache_Controller.IFLOX.Exclusive_Unblock          127      0.00%      0.00%
system.ruby.L2Cache_Controller.IFLOXX.L1_GETS          182      0.00%      0.00%
system.ruby.L2Cache_Controller.IFLOXX.L1_GETX            8      0.00%      0.00%
system.ruby.L2Cache_Controller.IFLOXX.Unblock        17005      0.00%      0.00%
system.ruby.L2Cache_Controller.IFLOXX.Exclusive_Unblock        33251      0.00%      0.00%
system.ruby.L2Cache_Controller.IFLOSX.Unblock        12091      0.00%      0.00%
system.ruby.L2Cache_Controller.IFLXO.L1_GETS          163      0.00%      0.00%
system.ruby.L2Cache_Controller.IFLXO.L1_GETX            3      0.00%      0.00%
system.ruby.L2Cache_Controller.IFLXO.Exclusive_Unblock        15991      0.00%      0.00%
system.ruby.L2Cache_Controller.IGS.L1_GETS          147      0.00%      0.00%
system.ruby.L2Cache_Controller.IGS.Data        112599      0.00%      0.00%
system.ruby.L2Cache_Controller.IGS.Unblock       112599      0.00%      0.00%
system.ruby.L2Cache_Controller.IGM.Data         26953      0.00%      0.00%
system.ruby.L2Cache_Controller.IGMLS.Data        19443      0.00%      0.00%
system.ruby.L2Cache_Controller.IGMO.All_Acks        46396      0.00%      0.00%
system.ruby.L2Cache_Controller.IGMO.Exclusive_Unblock        46396      0.00%      0.00%
system.ruby.L2Cache_Controller.MM.Exclusive_Unblock       137916      0.00%      0.00%
system.ruby.L2Cache_Controller.SS.L1_GETS            1      0.00%      0.00%
system.ruby.L2Cache_Controller.SS.Unblock      4227277      0.00%      0.00%
system.ruby.L2Cache_Controller.OO.Exclusive_Unblock       276939      0.00%      0.00%
system.ruby.L2Cache_Controller.OLSXS.Unblock         1504      0.00%      0.00%
system.ruby.L2Cache_Controller.SLSS.L1_GETS            5      0.00%      0.00%
system.ruby.L2Cache_Controller.SLSS.L1_PUTS_only            2      0.00%      0.00%
system.ruby.L2Cache_Controller.SLSS.L1_PUTS            6      0.00%      0.00%
system.ruby.L2Cache_Controller.SLSS.Unblock       168882      0.00%      0.00%
system.ruby.L2Cache_Controller.MI.Writeback_Ack        35417      0.00%      0.00%
system.ruby.L2Cache_Controller.OLSI.Writeback_Ack           45      0.00%      0.00%
system.ruby.L2Cache_Controller.ILXD.DmaAck          859      0.00%      0.00%

---------- End Simulation Statistics   ----------
