
---------- Begin Simulation Statistics ----------
sim_seconds                                  1.745561                       # Number of seconds simulated
sim_ticks                                1745560811500                       # Number of ticks simulated
final_tick                               54085755844001                       # Number of ticks from beginning of simulation (restored from checkpoints and never reset)
sim_freq                                 1000000000000                       # Frequency of simulated ticks
host_inst_rate                                 107085                       # Simulator instruction rate (inst/s)
host_op_rate                                   159561                       # Simulator op (including micro ops) rate (op/s)
host_tick_rate                              257862607                       # Simulator tick rate (ticks/s)
host_mem_usage                                1791204                       # Number of bytes of host memory used
host_seconds                                  6769.34                       # Real time elapsed on the host
sim_insts                                   724894060                       # Number of instructions simulated
sim_ops                                    1080120284                       # Number of ops (including micro ops) simulated
system.voltage_domain.voltage                       1                       # Voltage in Volts
system.clk_domain.clock                          1000                       # Clock period in ticks
system.mem_ctrls.bytes_read::ruby.dir_cntrl0    446733504                       # Number of bytes read from this memory
system.mem_ctrls.bytes_read::total          446733504                       # Number of bytes read from this memory
system.mem_ctrls.bytes_written::ruby.dir_cntrl0    232714880                       # Number of bytes written to this memory
system.mem_ctrls.bytes_written::total       232714880                       # Number of bytes written to this memory
system.mem_ctrls.num_reads::ruby.dir_cntrl0      6980211                       # Number of read requests responded to by this memory
system.mem_ctrls.num_reads::total             6980211                       # Number of read requests responded to by this memory
system.mem_ctrls.num_writes::ruby.dir_cntrl0      3636170                       # Number of write requests responded to by this memory
system.mem_ctrls.num_writes::total            3636170                       # Number of write requests responded to by this memory
system.mem_ctrls.bw_read::ruby.dir_cntrl0    255925489                       # Total read bandwidth from this memory (bytes/s)
system.mem_ctrls.bw_read::total             255925489                       # Total read bandwidth from this memory (bytes/s)
system.mem_ctrls.bw_write::ruby.dir_cntrl0    133318117                       # Write bandwidth from this memory (bytes/s)
system.mem_ctrls.bw_write::total            133318117                       # Write bandwidth from this memory (bytes/s)
system.mem_ctrls.bw_total::ruby.dir_cntrl0    389243606                       # Total bandwidth to/from this memory (bytes/s)
system.mem_ctrls.bw_total::total            389243606                       # Total bandwidth to/from this memory (bytes/s)
system.mem_ctrls.readReqs                     6980211                       # Number of read requests accepted
system.mem_ctrls.writeReqs                    3636170                       # Number of write requests accepted
system.mem_ctrls.readBursts                   6980211                       # Number of DRAM read bursts, including those serviced by the write queue
system.mem_ctrls.writeBursts                  3636170                       # Number of DRAM write bursts, including those merged in the write queue
system.mem_ctrls.bytesReadDRAM              440822720                       # Total number of bytes read from DRAM
system.mem_ctrls.bytesReadWrQ                 5910784                       # Total number of bytes read from write queue
system.mem_ctrls.bytesWritten               232686976                       # Total number of bytes written to DRAM
system.mem_ctrls.bytesReadSys               446733504                       # Total read bytes from the system interface side
system.mem_ctrls.bytesWrittenSys            232714880                       # Total written bytes from the system interface side
system.mem_ctrls.servicedByWrQ                  92356                       # Number of DRAM read bursts serviced by the write queue
system.mem_ctrls.mergedWrBursts                   416                       # Number of DRAM write bursts merged with an existing one
system.mem_ctrls.neitherReadNorWriteReqs            0                       # Number of requests that are neither read nor write
system.mem_ctrls.perBankRdBursts::0            425880                       # Per bank write bursts
system.mem_ctrls.perBankRdBursts::1            411829                       # Per bank write bursts
system.mem_ctrls.perBankRdBursts::2            430957                       # Per bank write bursts
system.mem_ctrls.perBankRdBursts::3            433812                       # Per bank write bursts
system.mem_ctrls.perBankRdBursts::4            437172                       # Per bank write bursts
system.mem_ctrls.perBankRdBursts::5            426845                       # Per bank write bursts
system.mem_ctrls.perBankRdBursts::6            453049                       # Per bank write bursts
system.mem_ctrls.perBankRdBursts::7            440085                       # Per bank write bursts
system.mem_ctrls.perBankRdBursts::8            436825                       # Per bank write bursts
system.mem_ctrls.perBankRdBursts::9            436350                       # Per bank write bursts
system.mem_ctrls.perBankRdBursts::10           413395                       # Per bank write bursts
system.mem_ctrls.perBankRdBursts::11           435208                       # Per bank write bursts
system.mem_ctrls.perBankRdBursts::12           435014                       # Per bank write bursts
system.mem_ctrls.perBankRdBursts::13           404129                       # Per bank write bursts
system.mem_ctrls.perBankRdBursts::14           413283                       # Per bank write bursts
system.mem_ctrls.perBankRdBursts::15           454022                       # Per bank write bursts
system.mem_ctrls.perBankWrBursts::0            223418                       # Per bank write bursts
system.mem_ctrls.perBankWrBursts::1            215079                       # Per bank write bursts
system.mem_ctrls.perBankWrBursts::2            225653                       # Per bank write bursts
system.mem_ctrls.perBankWrBursts::3            224183                       # Per bank write bursts
system.mem_ctrls.perBankWrBursts::4            229940                       # Per bank write bursts
system.mem_ctrls.perBankWrBursts::5            229037                       # Per bank write bursts
system.mem_ctrls.perBankWrBursts::6            250375                       # Per bank write bursts
system.mem_ctrls.perBankWrBursts::7            242924                       # Per bank write bursts
system.mem_ctrls.perBankWrBursts::8            242992                       # Per bank write bursts
system.mem_ctrls.perBankWrBursts::9            232524                       # Per bank write bursts
system.mem_ctrls.perBankWrBursts::10           215617                       # Per bank write bursts
system.mem_ctrls.perBankWrBursts::11           223606                       # Per bank write bursts
system.mem_ctrls.perBankWrBursts::12           223893                       # Per bank write bursts
system.mem_ctrls.perBankWrBursts::13           210776                       # Per bank write bursts
system.mem_ctrls.perBankWrBursts::14           216221                       # Per bank write bursts
system.mem_ctrls.perBankWrBursts::15           229496                       # Per bank write bursts
system.mem_ctrls.numRdRetry                         0                       # Number of times read queue was full causing retry
system.mem_ctrls.numWrRetry                         0                       # Number of times write queue was full causing retry
system.mem_ctrls.totGap                  1745560746500                       # Total gap between requests
system.mem_ctrls.readPktSize::0                     0                       # Read request sizes (log2)
system.mem_ctrls.readPktSize::1                     0                       # Read request sizes (log2)
system.mem_ctrls.readPktSize::2                     0                       # Read request sizes (log2)
system.mem_ctrls.readPktSize::3                     0                       # Read request sizes (log2)
system.mem_ctrls.readPktSize::4                     0                       # Read request sizes (log2)
system.mem_ctrls.readPktSize::5                     0                       # Read request sizes (log2)
system.mem_ctrls.readPktSize::6               6980211                       # Read request sizes (log2)
system.mem_ctrls.writePktSize::0                    0                       # Write request sizes (log2)
system.mem_ctrls.writePktSize::1                    0                       # Write request sizes (log2)
system.mem_ctrls.writePktSize::2                    0                       # Write request sizes (log2)
system.mem_ctrls.writePktSize::3                    0                       # Write request sizes (log2)
system.mem_ctrls.writePktSize::4                    0                       # Write request sizes (log2)
system.mem_ctrls.writePktSize::5                    0                       # Write request sizes (log2)
system.mem_ctrls.writePktSize::6              3636170                       # Write request sizes (log2)
system.mem_ctrls.rdQLenPdf::0                 6886828                       # What read queue length does an incoming req see
system.mem_ctrls.rdQLenPdf::1                    1027                       # What read queue length does an incoming req see
system.mem_ctrls.rdQLenPdf::2                       0                       # What read queue length does an incoming req see
system.mem_ctrls.rdQLenPdf::3                       0                       # What read queue length does an incoming req see
system.mem_ctrls.rdQLenPdf::4                       0                       # What read queue length does an incoming req see
system.mem_ctrls.rdQLenPdf::5                       0                       # What read queue length does an incoming req see
system.mem_ctrls.rdQLenPdf::6                       0                       # What read queue length does an incoming req see
system.mem_ctrls.rdQLenPdf::7                       0                       # What read queue length does an incoming req see
system.mem_ctrls.rdQLenPdf::8                       0                       # What read queue length does an incoming req see
system.mem_ctrls.rdQLenPdf::9                       0                       # What read queue length does an incoming req see
system.mem_ctrls.rdQLenPdf::10                      0                       # What read queue length does an incoming req see
system.mem_ctrls.rdQLenPdf::11                      0                       # What read queue length does an incoming req see
system.mem_ctrls.rdQLenPdf::12                      0                       # What read queue length does an incoming req see
system.mem_ctrls.rdQLenPdf::13                      0                       # What read queue length does an incoming req see
system.mem_ctrls.rdQLenPdf::14                      0                       # What read queue length does an incoming req see
system.mem_ctrls.rdQLenPdf::15                      0                       # What read queue length does an incoming req see
system.mem_ctrls.rdQLenPdf::16                      0                       # What read queue length does an incoming req see
system.mem_ctrls.rdQLenPdf::17                      0                       # What read queue length does an incoming req see
system.mem_ctrls.rdQLenPdf::18                      0                       # What read queue length does an incoming req see
system.mem_ctrls.rdQLenPdf::19                      0                       # What read queue length does an incoming req see
system.mem_ctrls.rdQLenPdf::20                      0                       # What read queue length does an incoming req see
system.mem_ctrls.rdQLenPdf::21                      0                       # What read queue length does an incoming req see
system.mem_ctrls.rdQLenPdf::22                      0                       # What read queue length does an incoming req see
system.mem_ctrls.rdQLenPdf::23                      0                       # What read queue length does an incoming req see
system.mem_ctrls.rdQLenPdf::24                      0                       # What read queue length does an incoming req see
system.mem_ctrls.rdQLenPdf::25                      0                       # What read queue length does an incoming req see
system.mem_ctrls.rdQLenPdf::26                      0                       # What read queue length does an incoming req see
system.mem_ctrls.rdQLenPdf::27                      0                       # What read queue length does an incoming req see
system.mem_ctrls.rdQLenPdf::28                      0                       # What read queue length does an incoming req see
system.mem_ctrls.rdQLenPdf::29                      0                       # What read queue length does an incoming req see
system.mem_ctrls.rdQLenPdf::30                      0                       # What read queue length does an incoming req see
system.mem_ctrls.rdQLenPdf::31                      0                       # What read queue length does an incoming req see
system.mem_ctrls.wrQLenPdf::0                       0                       # What write queue length does an incoming req see
system.mem_ctrls.wrQLenPdf::1                       0                       # What write queue length does an incoming req see
system.mem_ctrls.wrQLenPdf::2                       1                       # What write queue length does an incoming req see
system.mem_ctrls.wrQLenPdf::3                       1                       # What write queue length does an incoming req see
system.mem_ctrls.wrQLenPdf::4                       1                       # What write queue length does an incoming req see
system.mem_ctrls.wrQLenPdf::5                       1                       # What write queue length does an incoming req see
system.mem_ctrls.wrQLenPdf::6                       1                       # What write queue length does an incoming req see
system.mem_ctrls.wrQLenPdf::7                       1                       # What write queue length does an incoming req see
system.mem_ctrls.wrQLenPdf::8                       1                       # What write queue length does an incoming req see
system.mem_ctrls.wrQLenPdf::9                       1                       # What write queue length does an incoming req see
system.mem_ctrls.wrQLenPdf::10                      1                       # What write queue length does an incoming req see
system.mem_ctrls.wrQLenPdf::11                      1                       # What write queue length does an incoming req see
system.mem_ctrls.wrQLenPdf::12                      1                       # What write queue length does an incoming req see
system.mem_ctrls.wrQLenPdf::13                      1                       # What write queue length does an incoming req see
system.mem_ctrls.wrQLenPdf::14                      1                       # What write queue length does an incoming req see
system.mem_ctrls.wrQLenPdf::15                  49903                       # What write queue length does an incoming req see
system.mem_ctrls.wrQLenPdf::16                  64985                       # What write queue length does an incoming req see
system.mem_ctrls.wrQLenPdf::17                 158111                       # What write queue length does an incoming req see
system.mem_ctrls.wrQLenPdf::18                 216104                       # What write queue length does an incoming req see
system.mem_ctrls.wrQLenPdf::19                 225405                       # What write queue length does an incoming req see
system.mem_ctrls.wrQLenPdf::20                 227382                       # What write queue length does an incoming req see
system.mem_ctrls.wrQLenPdf::21                 227947                       # What write queue length does an incoming req see
system.mem_ctrls.wrQLenPdf::22                 227882                       # What write queue length does an incoming req see
system.mem_ctrls.wrQLenPdf::23                 227600                       # What write queue length does an incoming req see
system.mem_ctrls.wrQLenPdf::24                 227052                       # What write queue length does an incoming req see
system.mem_ctrls.wrQLenPdf::25                 226558                       # What write queue length does an incoming req see
system.mem_ctrls.wrQLenPdf::26                 225938                       # What write queue length does an incoming req see
system.mem_ctrls.wrQLenPdf::27                 224828                       # What write queue length does an incoming req see
system.mem_ctrls.wrQLenPdf::28                 223291                       # What write queue length does an incoming req see
system.mem_ctrls.wrQLenPdf::29                 222918                       # What write queue length does an incoming req see
system.mem_ctrls.wrQLenPdf::30                 220414                       # What write queue length does an incoming req see
system.mem_ctrls.wrQLenPdf::31                 218819                       # What write queue length does an incoming req see
system.mem_ctrls.wrQLenPdf::32                 218954                       # What write queue length does an incoming req see
system.mem_ctrls.wrQLenPdf::33                   1097                       # What write queue length does an incoming req see
system.mem_ctrls.wrQLenPdf::34                    325                       # What write queue length does an incoming req see
system.mem_ctrls.wrQLenPdf::35                    115                       # What write queue length does an incoming req see
system.mem_ctrls.wrQLenPdf::36                     37                       # What write queue length does an incoming req see
system.mem_ctrls.wrQLenPdf::37                     20                       # What write queue length does an incoming req see
system.mem_ctrls.wrQLenPdf::38                     14                       # What write queue length does an incoming req see
system.mem_ctrls.wrQLenPdf::39                     12                       # What write queue length does an incoming req see
system.mem_ctrls.wrQLenPdf::40                      8                       # What write queue length does an incoming req see
system.mem_ctrls.wrQLenPdf::41                      9                       # What write queue length does an incoming req see
system.mem_ctrls.wrQLenPdf::42                      6                       # What write queue length does an incoming req see
system.mem_ctrls.wrQLenPdf::43                      4                       # What write queue length does an incoming req see
system.mem_ctrls.wrQLenPdf::44                      2                       # What write queue length does an incoming req see
system.mem_ctrls.wrQLenPdf::45                      1                       # What write queue length does an incoming req see
system.mem_ctrls.wrQLenPdf::46                      0                       # What write queue length does an incoming req see
system.mem_ctrls.wrQLenPdf::47                      0                       # What write queue length does an incoming req see
system.mem_ctrls.wrQLenPdf::48                      0                       # What write queue length does an incoming req see
system.mem_ctrls.wrQLenPdf::49                      0                       # What write queue length does an incoming req see
system.mem_ctrls.wrQLenPdf::50                      0                       # What write queue length does an incoming req see
system.mem_ctrls.wrQLenPdf::51                      0                       # What write queue length does an incoming req see
system.mem_ctrls.wrQLenPdf::52                      0                       # What write queue length does an incoming req see
system.mem_ctrls.wrQLenPdf::53                      0                       # What write queue length does an incoming req see
system.mem_ctrls.wrQLenPdf::54                      0                       # What write queue length does an incoming req see
system.mem_ctrls.wrQLenPdf::55                      0                       # What write queue length does an incoming req see
system.mem_ctrls.wrQLenPdf::56                      0                       # What write queue length does an incoming req see
system.mem_ctrls.wrQLenPdf::57                      0                       # What write queue length does an incoming req see
system.mem_ctrls.wrQLenPdf::58                      0                       # What write queue length does an incoming req see
system.mem_ctrls.wrQLenPdf::59                      0                       # What write queue length does an incoming req see
system.mem_ctrls.wrQLenPdf::60                      0                       # What write queue length does an incoming req see
system.mem_ctrls.wrQLenPdf::61                      0                       # What write queue length does an incoming req see
system.mem_ctrls.wrQLenPdf::62                      0                       # What write queue length does an incoming req see
system.mem_ctrls.wrQLenPdf::63                      0                       # What write queue length does an incoming req see
system.mem_ctrls.bytesPerActivate::samples      5944629                       # Bytes accessed per row activation
system.mem_ctrls.bytesPerActivate::mean    113.297168                       # Bytes accessed per row activation
system.mem_ctrls.bytesPerActivate::gmean    79.312467                       # Bytes accessed per row activation
system.mem_ctrls.bytesPerActivate::stdev   176.995588                       # Bytes accessed per row activation
system.mem_ctrls.bytesPerActivate::0-127      5131411     86.32%     86.32% # Bytes accessed per row activation
system.mem_ctrls.bytesPerActivate::128-255       364633      6.13%     92.45% # Bytes accessed per row activation
system.mem_ctrls.bytesPerActivate::256-383       119805      2.02%     94.47% # Bytes accessed per row activation
system.mem_ctrls.bytesPerActivate::384-511        68353      1.15%     95.62% # Bytes accessed per row activation
system.mem_ctrls.bytesPerActivate::512-639        40531      0.68%     96.30% # Bytes accessed per row activation
system.mem_ctrls.bytesPerActivate::640-767        27483      0.46%     96.76% # Bytes accessed per row activation
system.mem_ctrls.bytesPerActivate::768-895        26225      0.44%     97.20% # Bytes accessed per row activation
system.mem_ctrls.bytesPerActivate::896-1023        14962      0.25%     97.46% # Bytes accessed per row activation
system.mem_ctrls.bytesPerActivate::1024-1151       151226      2.54%    100.00% # Bytes accessed per row activation
system.mem_ctrls.bytesPerActivate::total      5944629                       # Bytes accessed per row activation
system.mem_ctrls.rdPerTurnAround::samples       217903                       # Reads before turning the bus around for writes
system.mem_ctrls.rdPerTurnAround::mean      31.679706                       # Reads before turning the bus around for writes
system.mem_ctrls.rdPerTurnAround::stdev    708.581010                       # Reads before turning the bus around for writes
system.mem_ctrls.rdPerTurnAround::0-8191       217862     99.98%     99.98% # Reads before turning the bus around for writes
system.mem_ctrls.rdPerTurnAround::8192-16383           23      0.01%     99.99% # Reads before turning the bus around for writes
system.mem_ctrls.rdPerTurnAround::16384-24575            6      0.00%     99.99% # Reads before turning the bus around for writes
system.mem_ctrls.rdPerTurnAround::24576-32767            4      0.00%    100.00% # Reads before turning the bus around for writes
system.mem_ctrls.rdPerTurnAround::40960-49151            1      0.00%    100.00% # Reads before turning the bus around for writes
system.mem_ctrls.rdPerTurnAround::57344-65535            2      0.00%    100.00% # Reads before turning the bus around for writes
system.mem_ctrls.rdPerTurnAround::65536-73727            1      0.00%    100.00% # Reads before turning the bus around for writes
system.mem_ctrls.rdPerTurnAround::81920-90111            2      0.00%    100.00% # Reads before turning the bus around for writes
system.mem_ctrls.rdPerTurnAround::90112-98303            1      0.00%    100.00% # Reads before turning the bus around for writes
system.mem_ctrls.rdPerTurnAround::245760-253951            1      0.00%    100.00% # Reads before turning the bus around for writes
system.mem_ctrls.rdPerTurnAround::total        217903                       # Reads before turning the bus around for writes
system.mem_ctrls.wrPerTurnAround::samples       217903                       # Writes before turning the bus around for reads
system.mem_ctrls.wrPerTurnAround::mean      16.685103                       # Writes before turning the bus around for reads
system.mem_ctrls.wrPerTurnAround::gmean     16.648104                       # Writes before turning the bus around for reads
system.mem_ctrls.wrPerTurnAround::stdev      1.155578                       # Writes before turning the bus around for reads
system.mem_ctrls.wrPerTurnAround::16           149826     68.76%     68.76% # Writes before turning the bus around for reads
system.mem_ctrls.wrPerTurnAround::17            10999      5.05%     73.81% # Writes before turning the bus around for reads
system.mem_ctrls.wrPerTurnAround::18            42060     19.30%     93.11% # Writes before turning the bus around for reads
system.mem_ctrls.wrPerTurnAround::19             9493      4.36%     97.46% # Writes before turning the bus around for reads
system.mem_ctrls.wrPerTurnAround::20             3491      1.60%     99.07% # Writes before turning the bus around for reads
system.mem_ctrls.wrPerTurnAround::21             1272      0.58%     99.65% # Writes before turning the bus around for reads
system.mem_ctrls.wrPerTurnAround::22              431      0.20%     99.85% # Writes before turning the bus around for reads
system.mem_ctrls.wrPerTurnAround::23              170      0.08%     99.93% # Writes before turning the bus around for reads
system.mem_ctrls.wrPerTurnAround::24               62      0.03%     99.95% # Writes before turning the bus around for reads
system.mem_ctrls.wrPerTurnAround::25               41      0.02%     99.97% # Writes before turning the bus around for reads
system.mem_ctrls.wrPerTurnAround::26               25      0.01%     99.98% # Writes before turning the bus around for reads
system.mem_ctrls.wrPerTurnAround::27               11      0.01%     99.99% # Writes before turning the bus around for reads
system.mem_ctrls.wrPerTurnAround::28                8      0.00%     99.99% # Writes before turning the bus around for reads
system.mem_ctrls.wrPerTurnAround::29                1      0.00%     99.99% # Writes before turning the bus around for reads
system.mem_ctrls.wrPerTurnAround::30                1      0.00%     99.99% # Writes before turning the bus around for reads
system.mem_ctrls.wrPerTurnAround::31                2      0.00%    100.00% # Writes before turning the bus around for reads
system.mem_ctrls.wrPerTurnAround::34                1      0.00%    100.00% # Writes before turning the bus around for reads
system.mem_ctrls.wrPerTurnAround::35                5      0.00%    100.00% # Writes before turning the bus around for reads
system.mem_ctrls.wrPerTurnAround::36                2      0.00%    100.00% # Writes before turning the bus around for reads
system.mem_ctrls.wrPerTurnAround::38                1      0.00%    100.00% # Writes before turning the bus around for reads
system.mem_ctrls.wrPerTurnAround::40                1      0.00%    100.00% # Writes before turning the bus around for reads
system.mem_ctrls.wrPerTurnAround::total        217903                       # Writes before turning the bus around for reads
system.mem_ctrls.totQLat                 114694212493                       # Total ticks spent queuing
system.mem_ctrls.totMemAccLat            243841493743                       # Total ticks spent from burst creation until serviced by the DRAM
system.mem_ctrls.totBusLat                34439275000                       # Total ticks spent in databus transfers
system.mem_ctrls.avgQLat                     16651.66                       # Average queueing delay per DRAM burst
system.mem_ctrls.avgBusLat                    5000.00                       # Average bus latency per DRAM burst
system.mem_ctrls.avgMemAccLat                35401.66                       # Average memory access latency per DRAM burst
system.mem_ctrls.avgRdBW                       252.54                       # Average DRAM read bandwidth in MiByte/s
system.mem_ctrls.avgWrBW                       133.30                       # Average achieved write bandwidth in MiByte/s
system.mem_ctrls.avgRdBWSys                    255.93                       # Average system read bandwidth in MiByte/s
system.mem_ctrls.avgWrBWSys                    133.32                       # Average system write bandwidth in MiByte/s
system.mem_ctrls.peakBW                      12800.00                       # Theoretical peak bandwidth in MiByte/s
system.mem_ctrls.busUtil                         3.01                       # Data bus utilization in percentage
system.mem_ctrls.busUtilRead                     1.97                       # Data bus utilization in percentage for reads
system.mem_ctrls.busUtilWrite                    1.04                       # Data bus utilization in percentage for writes
system.mem_ctrls.avgRdQLen                       1.00                       # Average read queue length when enqueuing
system.mem_ctrls.avgWrQLen                      25.21                       # Average write queue length when enqueuing
system.mem_ctrls.readRowHits                  3682659                       # Number of row buffer hits during reads
system.mem_ctrls.writeRowHits                  896299                       # Number of row buffer hits during writes
system.mem_ctrls.readRowHitRate                 53.47                       # Row buffer hit rate for reads
system.mem_ctrls.writeRowHitRate                24.65                       # Row buffer hit rate for writes
system.mem_ctrls.avgGap                     164421.45                       # Average gap between requests
system.mem_ctrls.pageHitRate                    43.51                       # Row buffer hit rate, read and write combined
system.mem_ctrls_0.actEnergy              22767847200                       # Energy for activate commands per rank (pJ)
system.mem_ctrls_0.preEnergy              12422932500                       # Energy for precharge commands per rank (pJ)
system.mem_ctrls_0.readEnergy             27051913200                       # Energy for read commands per rank (pJ)
system.mem_ctrls_0.writeEnergy            11927146320                       # Energy for write commands per rank (pJ)
system.mem_ctrls_0.refreshEnergy         114225118800                       # Energy for refresh commands per rank (pJ)
system.mem_ctrls_0.actBackEnergy         600163908660                       # Energy for active background per rank (pJ)
system.mem_ctrls_0.preBackEnergy         522838995750                       # Energy for precharge background per rank (pJ)
system.mem_ctrls_0.totalEnergy           1311397862430                       # Total energy per rank (pJ)
system.mem_ctrls_0.averagePower            749.871146                       # Core power per rank (mW)
system.mem_ctrls_0.memoryStateTime::IDLE 864584587000                       # Time in different power states
system.mem_ctrls_0.memoryStateTime::REF   58288100000                       # Time in different power states
system.mem_ctrls_0.memoryStateTime::PRE_PDN            0                       # Time in different power states
system.mem_ctrls_0.memoryStateTime::ACT  822688082250                       # Time in different power states
system.mem_ctrls_0.memoryStateTime::ACT_PDN            0                       # Time in different power states
system.mem_ctrls_1.actEnergy              22202064360                       # Energy for activate commands per rank (pJ)
system.mem_ctrls_1.preEnergy              12114221625                       # Energy for precharge commands per rank (pJ)
system.mem_ctrls_1.readEnergy             26792758200                       # Energy for read commands per rank (pJ)
system.mem_ctrls_1.writeEnergy            11632410000                       # Energy for write commands per rank (pJ)
system.mem_ctrls_1.refreshEnergy         114225118800                       # Energy for refresh commands per rank (pJ)
system.mem_ctrls_1.actBackEnergy         598943974140                       # Energy for active background per rank (pJ)
system.mem_ctrls_1.preBackEnergy         523909113750                       # Energy for precharge background per rank (pJ)
system.mem_ctrls_1.totalEnergy           1309819660875                       # Total energy per rank (pJ)
system.mem_ctrls_1.averagePower            748.968714                       # Core power per rank (mW)
system.mem_ctrls_1.memoryStateTime::IDLE 866190810000                       # Time in different power states
system.mem_ctrls_1.memoryStateTime::REF   58288100000                       # Time in different power states
system.mem_ctrls_1.memoryStateTime::PRE_PDN            0                       # Time in different power states
system.mem_ctrls_1.memoryStateTime::ACT  821081560000                       # Time in different power states
system.mem_ctrls_1.memoryStateTime::ACT_PDN            0                       # Time in different power states
system.cpu_voltage_domain.voltage                   1                       # Voltage in Volts
system.cpu_clk_domain.clock                       500                       # Clock period in ticks
system.cpu0.apic_clk_domain.clock                8000                       # Clock period in ticks
system.cpu0.numCycles                      3494069606                       # number of cpu cycles simulated
system.cpu0.numWorkItemsStarted                     0                       # number of work items this cpu started
system.cpu0.numWorkItemsCompleted                   0                       # number of work items this cpu completed
system.cpu0.kern.inst.arm                           0                       # number of arm instructions executed
system.cpu0.kern.inst.quiesce                       0                       # number of quiesce instructions executed
system.cpu0.committedInsts                    1438226                       # Number of instructions committed
system.cpu0.committedOps                      3126109                       # Number of ops (including micro ops) committed
system.cpu0.num_int_alu_accesses              3058753                       # Number of integer alu accesses
system.cpu0.num_fp_alu_accesses                    39                       # Number of float alu accesses
system.cpu0.num_func_calls                      91984                       # number of times a function call or return occured
system.cpu0.num_conditional_control_insts       206759                       # number of instructions that are conditional controls
system.cpu0.num_int_insts                     3058753                       # number of integer instructions
system.cpu0.num_fp_insts                           39                       # number of float instructions
system.cpu0.num_int_register_reads            6222954                       # number of times the integer registers were read
system.cpu0.num_int_register_writes           2531777                       # number of times the integer registers were written
system.cpu0.num_fp_register_reads                  63                       # number of times the floating registers were read
system.cpu0.num_fp_register_writes                 31                       # number of times the floating registers were written
system.cpu0.num_cc_register_reads             1722308                       # number of times the CC registers were read
system.cpu0.num_cc_register_writes             934214                       # number of times the CC registers were written
system.cpu0.num_mem_refs                       740156                       # number of memory refs
system.cpu0.num_load_insts                     455684                       # Number of load instructions
system.cpu0.num_store_insts                    284472                       # Number of store instructions
system.cpu0.num_idle_cycles              3487870435.695306                       # Number of idle cycles
system.cpu0.num_busy_cycles              6199170.304694                       # Number of busy cycles
system.cpu0.not_idle_fraction                0.001774                       # Percentage of non-idle cycles
system.cpu0.idle_fraction                    0.998226                       # Percentage of idle cycles
system.cpu0.Branches                           326903                       # Number of branches fetched
system.cpu0.op_class::No_OpClass                53984      1.73%      1.73% # Class of executed instruction
system.cpu0.op_class::IntAlu                  2308221     73.84%     75.56% # Class of executed instruction
system.cpu0.op_class::IntMult                    5794      0.19%     75.75% # Class of executed instruction
system.cpu0.op_class::IntDiv                    17947      0.57%     76.32% # Class of executed instruction
system.cpu0.op_class::FloatAdd                     30      0.00%     76.32% # Class of executed instruction
system.cpu0.op_class::FloatCmp                      0      0.00%     76.32% # Class of executed instruction
system.cpu0.op_class::FloatCvt                      0      0.00%     76.32% # Class of executed instruction
system.cpu0.op_class::FloatMult                     0      0.00%     76.32% # Class of executed instruction
system.cpu0.op_class::FloatDiv                      0      0.00%     76.32% # Class of executed instruction
system.cpu0.op_class::FloatSqrt                     0      0.00%     76.32% # Class of executed instruction
system.cpu0.op_class::SimdAdd                       0      0.00%     76.32% # Class of executed instruction
system.cpu0.op_class::SimdAddAcc                    0      0.00%     76.32% # Class of executed instruction
system.cpu0.op_class::SimdAlu                       0      0.00%     76.32% # Class of executed instruction
system.cpu0.op_class::SimdCmp                       0      0.00%     76.32% # Class of executed instruction
system.cpu0.op_class::SimdCvt                       0      0.00%     76.32% # Class of executed instruction
system.cpu0.op_class::SimdMisc                      0      0.00%     76.32% # Class of executed instruction
system.cpu0.op_class::SimdMult                      0      0.00%     76.32% # Class of executed instruction
system.cpu0.op_class::SimdMultAcc                   0      0.00%     76.32% # Class of executed instruction
system.cpu0.op_class::SimdShift                     0      0.00%     76.32% # Class of executed instruction
system.cpu0.op_class::SimdShiftAcc                  0      0.00%     76.32% # Class of executed instruction
system.cpu0.op_class::SimdSqrt                      0      0.00%     76.32% # Class of executed instruction
system.cpu0.op_class::SimdFloatAdd                  0      0.00%     76.32% # Class of executed instruction
system.cpu0.op_class::SimdFloatAlu                  0      0.00%     76.32% # Class of executed instruction
system.cpu0.op_class::SimdFloatCmp                  0      0.00%     76.32% # Class of executed instruction
system.cpu0.op_class::SimdFloatCvt                  0      0.00%     76.32% # Class of executed instruction
system.cpu0.op_class::SimdFloatDiv                  0      0.00%     76.32% # Class of executed instruction
system.cpu0.op_class::SimdFloatMisc                 0      0.00%     76.32% # Class of executed instruction
system.cpu0.op_class::SimdFloatMult                 0      0.00%     76.32% # Class of executed instruction
system.cpu0.op_class::SimdFloatMultAcc              0      0.00%     76.32% # Class of executed instruction
system.cpu0.op_class::SimdFloatSqrt                 0      0.00%     76.32% # Class of executed instruction
system.cpu0.op_class::MemRead                  455684     14.58%     90.90% # Class of executed instruction
system.cpu0.op_class::MemWrite                 284472      9.10%    100.00% # Class of executed instruction
system.cpu0.op_class::IprAccess                     0      0.00%    100.00% # Class of executed instruction
system.cpu0.op_class::InstPrefetch                  0      0.00%    100.00% # Class of executed instruction
system.cpu0.op_class::total                   3126132                       # Class of executed instruction
system.cpu1.apic_clk_domain.clock                8000                       # Clock period in ticks
system.cpu1.numCycles                      3492536539                       # number of cpu cycles simulated
system.cpu1.numWorkItemsStarted                     0                       # number of work items this cpu started
system.cpu1.numWorkItemsCompleted                   0                       # number of work items this cpu completed
system.cpu1.kern.inst.arm                           0                       # number of arm instructions executed
system.cpu1.kern.inst.quiesce                       0                       # number of quiesce instructions executed
system.cpu1.committedInsts                  717124247                       # Number of instructions committed
system.cpu1.committedOps                   1064346427                       # Number of ops (including micro ops) committed
system.cpu1.num_int_alu_accesses            463856113                       # Number of integer alu accesses
system.cpu1.num_fp_alu_accesses             708837843                       # Number of float alu accesses
system.cpu1.num_func_calls                     898285                       # number of times a function call or return occured
system.cpu1.num_conditional_control_insts     10830621                       # number of instructions that are conditional controls
system.cpu1.num_int_insts                   463856113                       # number of integer instructions
system.cpu1.num_fp_insts                    708837843                       # number of float instructions
system.cpu1.num_int_register_reads          971801674                       # number of times the integer registers were read
system.cpu1.num_int_register_writes         343743641                       # number of times the integer registers were written
system.cpu1.num_fp_register_reads          1593836311                       # number of times the floating registers were read
system.cpu1.num_fp_register_writes          654311799                       # number of times the floating registers were written
system.cpu1.num_cc_register_reads           111621469                       # number of times the CC registers were read
system.cpu1.num_cc_register_writes          201618647                       # number of times the CC registers were written
system.cpu1.num_mem_refs                    129335658                       # number of memory refs
system.cpu1.num_load_insts                   75433561                       # Number of load instructions
system.cpu1.num_store_insts                  53902097                       # Number of store instructions
system.cpu1.num_idle_cycles              11411958.274565                       # Number of idle cycles
system.cpu1.num_busy_cycles              3481124580.725435                       # Number of busy cycles
system.cpu1.not_idle_fraction                0.996732                       # Percentage of non-idle cycles
system.cpu1.idle_fraction                    0.003268                       # Percentage of idle cycles
system.cpu1.Branches                         12019720                       # Number of branches fetched
system.cpu1.op_class::No_OpClass               313082      0.03%      0.03% # Class of executed instruction
system.cpu1.op_class::IntAlu                431306677     40.52%     40.55% # Class of executed instruction
system.cpu1.op_class::IntMult                   88932      0.01%     40.56% # Class of executed instruction
system.cpu1.op_class::IntDiv                     1804      0.00%     40.56% # Class of executed instruction
system.cpu1.op_class::FloatAdd              503316796     47.29%     87.85% # Class of executed instruction
system.cpu1.op_class::FloatCmp                      0      0.00%     87.85% # Class of executed instruction
system.cpu1.op_class::FloatCvt                      0      0.00%     87.85% # Class of executed instruction
system.cpu1.op_class::FloatMult                     0      0.00%     87.85% # Class of executed instruction
system.cpu1.op_class::FloatDiv                      0      0.00%     87.85% # Class of executed instruction
system.cpu1.op_class::FloatSqrt                     0      0.00%     87.85% # Class of executed instruction
system.cpu1.op_class::SimdAdd                       0      0.00%     87.85% # Class of executed instruction
system.cpu1.op_class::SimdAddAcc                    0      0.00%     87.85% # Class of executed instruction
system.cpu1.op_class::SimdAlu                       0      0.00%     87.85% # Class of executed instruction
system.cpu1.op_class::SimdCmp                       0      0.00%     87.85% # Class of executed instruction
system.cpu1.op_class::SimdCvt                       0      0.00%     87.85% # Class of executed instruction
system.cpu1.op_class::SimdMisc                      0      0.00%     87.85% # Class of executed instruction
system.cpu1.op_class::SimdMult                      0      0.00%     87.85% # Class of executed instruction
system.cpu1.op_class::SimdMultAcc                   0      0.00%     87.85% # Class of executed instruction
system.cpu1.op_class::SimdShift                     0      0.00%     87.85% # Class of executed instruction
system.cpu1.op_class::SimdShiftAcc                  0      0.00%     87.85% # Class of executed instruction
system.cpu1.op_class::SimdSqrt                      0      0.00%     87.85% # Class of executed instruction
system.cpu1.op_class::SimdFloatAdd                  0      0.00%     87.85% # Class of executed instruction
system.cpu1.op_class::SimdFloatAlu                  0      0.00%     87.85% # Class of executed instruction
system.cpu1.op_class::SimdFloatCmp                  0      0.00%     87.85% # Class of executed instruction
system.cpu1.op_class::SimdFloatCvt                  0      0.00%     87.85% # Class of executed instruction
system.cpu1.op_class::SimdFloatDiv                  0      0.00%     87.85% # Class of executed instruction
system.cpu1.op_class::SimdFloatMisc                 0      0.00%     87.85% # Class of executed instruction
system.cpu1.op_class::SimdFloatMult                 0      0.00%     87.85% # Class of executed instruction
system.cpu1.op_class::SimdFloatMultAcc              0      0.00%     87.85% # Class of executed instruction
system.cpu1.op_class::SimdFloatSqrt                 0      0.00%     87.85% # Class of executed instruction
system.cpu1.op_class::MemRead                75433561      7.09%     94.94% # Class of executed instruction
system.cpu1.op_class::MemWrite               53902097      5.06%    100.00% # Class of executed instruction
system.cpu1.op_class::IprAccess                     0      0.00%    100.00% # Class of executed instruction
system.cpu1.op_class::InstPrefetch                  0      0.00%    100.00% # Class of executed instruction
system.cpu1.op_class::total                1064362949                       # Class of executed instruction
system.cpu2.apic_clk_domain.clock                8000                       # Clock period in ticks
system.cpu2.numCycles                      3487439501                       # number of cpu cycles simulated
system.cpu2.numWorkItemsStarted                     0                       # number of work items this cpu started
system.cpu2.numWorkItemsCompleted                   0                       # number of work items this cpu completed
system.cpu2.kern.inst.arm                           0                       # number of arm instructions executed
system.cpu2.kern.inst.quiesce                       0                       # number of quiesce instructions executed
system.cpu2.committedInsts                    1214322                       # Number of instructions committed
system.cpu2.committedOps                      2627083                       # Number of ops (including micro ops) committed
system.cpu2.num_int_alu_accesses              2568810                       # Number of integer alu accesses
system.cpu2.num_fp_alu_accesses                     0                       # Number of float alu accesses
system.cpu2.num_func_calls                      72474                       # number of times a function call or return occured
system.cpu2.num_conditional_control_insts       184646                       # number of instructions that are conditional controls
system.cpu2.num_int_insts                     2568810                       # number of integer instructions
system.cpu2.num_fp_insts                            0                       # number of float instructions
system.cpu2.num_int_register_reads            5220296                       # number of times the integer registers were read
system.cpu2.num_int_register_writes           2133020                       # number of times the integer registers were written
system.cpu2.num_fp_register_reads                   0                       # number of times the floating registers were read
system.cpu2.num_fp_register_writes                  0                       # number of times the floating registers were written
system.cpu2.num_cc_register_reads             1481140                       # number of times the CC registers were read
system.cpu2.num_cc_register_writes             775009                       # number of times the CC registers were written
system.cpu2.num_mem_refs                       625400                       # number of memory refs
system.cpu2.num_load_insts                     389112                       # Number of load instructions
system.cpu2.num_store_insts                    236288                       # Number of store instructions
system.cpu2.num_idle_cycles              3482281130.331078                       # Number of idle cycles
system.cpu2.num_busy_cycles              5158370.668923                       # Number of busy cycles
system.cpu2.not_idle_fraction                0.001479                       # Percentage of non-idle cycles
system.cpu2.idle_fraction                    0.998521                       # Percentage of idle cycles
system.cpu2.Branches                           280763                       # Number of branches fetched
system.cpu2.op_class::No_OpClass                49914      1.90%      1.90% # Class of executed instruction
system.cpu2.op_class::IntAlu                  1928764     73.42%     75.32% # Class of executed instruction
system.cpu2.op_class::IntMult                    5257      0.20%     75.52% # Class of executed instruction
system.cpu2.op_class::IntDiv                    17752      0.68%     76.19% # Class of executed instruction
system.cpu2.op_class::FloatAdd                      0      0.00%     76.19% # Class of executed instruction
system.cpu2.op_class::FloatCmp                      0      0.00%     76.19% # Class of executed instruction
system.cpu2.op_class::FloatCvt                      0      0.00%     76.19% # Class of executed instruction
system.cpu2.op_class::FloatMult                     0      0.00%     76.19% # Class of executed instruction
system.cpu2.op_class::FloatDiv                      0      0.00%     76.19% # Class of executed instruction
system.cpu2.op_class::FloatSqrt                     0      0.00%     76.19% # Class of executed instruction
system.cpu2.op_class::SimdAdd                       0      0.00%     76.19% # Class of executed instruction
system.cpu2.op_class::SimdAddAcc                    0      0.00%     76.19% # Class of executed instruction
system.cpu2.op_class::SimdAlu                       0      0.00%     76.19% # Class of executed instruction
system.cpu2.op_class::SimdCmp                       0      0.00%     76.19% # Class of executed instruction
system.cpu2.op_class::SimdCvt                       0      0.00%     76.19% # Class of executed instruction
system.cpu2.op_class::SimdMisc                      0      0.00%     76.19% # Class of executed instruction
system.cpu2.op_class::SimdMult                      0      0.00%     76.19% # Class of executed instruction
system.cpu2.op_class::SimdMultAcc                   0      0.00%     76.19% # Class of executed instruction
system.cpu2.op_class::SimdShift                     0      0.00%     76.19% # Class of executed instruction
system.cpu2.op_class::SimdShiftAcc                  0      0.00%     76.19% # Class of executed instruction
system.cpu2.op_class::SimdSqrt                      0      0.00%     76.19% # Class of executed instruction
system.cpu2.op_class::SimdFloatAdd                  0      0.00%     76.19% # Class of executed instruction
system.cpu2.op_class::SimdFloatAlu                  0      0.00%     76.19% # Class of executed instruction
system.cpu2.op_class::SimdFloatCmp                  0      0.00%     76.19% # Class of executed instruction
system.cpu2.op_class::SimdFloatCvt                  0      0.00%     76.19% # Class of executed instruction
system.cpu2.op_class::SimdFloatDiv                  0      0.00%     76.19% # Class of executed instruction
system.cpu2.op_class::SimdFloatMisc                 0      0.00%     76.19% # Class of executed instruction
system.cpu2.op_class::SimdFloatMult                 0      0.00%     76.19% # Class of executed instruction
system.cpu2.op_class::SimdFloatMultAcc              0      0.00%     76.19% # Class of executed instruction
system.cpu2.op_class::SimdFloatSqrt                 0      0.00%     76.19% # Class of executed instruction
system.cpu2.op_class::MemRead                  389112     14.81%     91.01% # Class of executed instruction
system.cpu2.op_class::MemWrite                 236288      8.99%    100.00% # Class of executed instruction
system.cpu2.op_class::IprAccess                     0      0.00%    100.00% # Class of executed instruction
system.cpu2.op_class::InstPrefetch                  0      0.00%    100.00% # Class of executed instruction
system.cpu2.op_class::total                   2627087                       # Class of executed instruction
system.cpu3.apic_clk_domain.clock                8000                       # Clock period in ticks
system.cpu3.numCycles                      3488973154                       # number of cpu cycles simulated
system.cpu3.numWorkItemsStarted                     0                       # number of work items this cpu started
system.cpu3.numWorkItemsCompleted                   0                       # number of work items this cpu completed
system.cpu3.kern.inst.arm                           0                       # number of arm instructions executed
system.cpu3.kern.inst.quiesce                       0                       # number of quiesce instructions executed
system.cpu3.committedInsts                    3778539                       # Number of instructions committed
system.cpu3.committedOps                      7558018                       # Number of ops (including micro ops) committed
system.cpu3.num_int_alu_accesses              7422395                       # Number of integer alu accesses
system.cpu3.num_fp_alu_accesses                  1778                       # Number of float alu accesses
system.cpu3.num_func_calls                     196470                       # number of times a function call or return occured
system.cpu3.num_conditional_control_insts       638233                       # number of instructions that are conditional controls
system.cpu3.num_int_insts                     7422395                       # number of integer instructions
system.cpu3.num_fp_insts                         1778                       # number of float instructions
system.cpu3.num_int_register_reads           14765083                       # number of times the integer registers were read
system.cpu3.num_int_register_writes           6040286                       # number of times the integer registers were written
system.cpu3.num_fp_register_reads                2988                       # number of times the floating registers were read
system.cpu3.num_fp_register_writes               1416                       # number of times the floating registers were written
system.cpu3.num_cc_register_reads             4787700                       # number of times the CC registers were read
system.cpu3.num_cc_register_writes            2577893                       # number of times the CC registers were written
system.cpu3.num_mem_refs                      1706969                       # number of memory refs
system.cpu3.num_load_insts                    1108252                       # Number of load instructions
system.cpu3.num_store_insts                    598717                       # Number of store instructions
system.cpu3.num_idle_cycles              3472753613.805802                       # Number of idle cycles
system.cpu3.num_busy_cycles              16219540.194198                       # Number of busy cycles
system.cpu3.not_idle_fraction                0.004649                       # Percentage of non-idle cycles
system.cpu3.idle_fraction                    0.995351                       # Percentage of idle cycles
system.cpu3.Branches                           869649                       # Number of branches fetched
system.cpu3.op_class::No_OpClass                54231      0.72%      0.72% # Class of executed instruction
system.cpu3.op_class::IntAlu                  5771043     76.36%     77.07% # Class of executed instruction
system.cpu3.op_class::IntMult                    6319      0.08%     77.16% # Class of executed instruction
system.cpu3.op_class::IntDiv                    18202      0.24%     77.40% # Class of executed instruction
system.cpu3.op_class::FloatAdd                   1344      0.02%     77.42% # Class of executed instruction
system.cpu3.op_class::FloatCmp                      0      0.00%     77.42% # Class of executed instruction
system.cpu3.op_class::FloatCvt                      0      0.00%     77.42% # Class of executed instruction
system.cpu3.op_class::FloatMult                     0      0.00%     77.42% # Class of executed instruction
system.cpu3.op_class::FloatDiv                      0      0.00%     77.42% # Class of executed instruction
system.cpu3.op_class::FloatSqrt                     0      0.00%     77.42% # Class of executed instruction
system.cpu3.op_class::SimdAdd                       0      0.00%     77.42% # Class of executed instruction
system.cpu3.op_class::SimdAddAcc                    0      0.00%     77.42% # Class of executed instruction
system.cpu3.op_class::SimdAlu                       0      0.00%     77.42% # Class of executed instruction
system.cpu3.op_class::SimdCmp                       0      0.00%     77.42% # Class of executed instruction
system.cpu3.op_class::SimdCvt                       0      0.00%     77.42% # Class of executed instruction
system.cpu3.op_class::SimdMisc                      0      0.00%     77.42% # Class of executed instruction
system.cpu3.op_class::SimdMult                      0      0.00%     77.42% # Class of executed instruction
system.cpu3.op_class::SimdMultAcc                   0      0.00%     77.42% # Class of executed instruction
system.cpu3.op_class::SimdShift                     0      0.00%     77.42% # Class of executed instruction
system.cpu3.op_class::SimdShiftAcc                  0      0.00%     77.42% # Class of executed instruction
system.cpu3.op_class::SimdSqrt                      0      0.00%     77.42% # Class of executed instruction
system.cpu3.op_class::SimdFloatAdd                  0      0.00%     77.42% # Class of executed instruction
system.cpu3.op_class::SimdFloatAlu                  0      0.00%     77.42% # Class of executed instruction
system.cpu3.op_class::SimdFloatCmp                  0      0.00%     77.42% # Class of executed instruction
system.cpu3.op_class::SimdFloatCvt                  0      0.00%     77.42% # Class of executed instruction
system.cpu3.op_class::SimdFloatDiv                  0      0.00%     77.42% # Class of executed instruction
system.cpu3.op_class::SimdFloatMisc                 0      0.00%     77.42% # Class of executed instruction
system.cpu3.op_class::SimdFloatMult                 0      0.00%     77.42% # Class of executed instruction
system.cpu3.op_class::SimdFloatMultAcc              0      0.00%     77.42% # Class of executed instruction
system.cpu3.op_class::SimdFloatSqrt                 0      0.00%     77.42% # Class of executed instruction
system.cpu3.op_class::MemRead                 1108252     14.66%     92.08% # Class of executed instruction
system.cpu3.op_class::MemWrite                 598717      7.92%    100.00% # Class of executed instruction
system.cpu3.op_class::IprAccess                     0      0.00%    100.00% # Class of executed instruction
system.cpu3.op_class::InstPrefetch                  0      0.00%    100.00% # Class of executed instruction
system.cpu3.op_class::total                   7558108                       # Class of executed instruction
system.iobus.trans_dist::ReadReq                   82                       # Transaction distribution
system.iobus.trans_dist::ReadResp                  82                       # Transaction distribution
system.iobus.trans_dist::WriteReq                1807                       # Transaction distribution
system.iobus.trans_dist::WriteResp               1807                       # Transaction distribution
system.iobus.trans_dist::MessageReq                12                       # Transaction distribution
system.iobus.trans_dist::MessageResp               12                       # Transaction distribution
system.iobus.pkt_count_system.pc.south_bridge.io_apic.int_master::system.ruby.l1_cntrl0.sequencer.pio-slave-port            2                       # Packet count per connected master and slave (bytes)
system.iobus.pkt_count_system.pc.south_bridge.io_apic.int_master::system.ruby.l1_cntrl1.sequencer.pio-slave-port            4                       # Packet count per connected master and slave (bytes)
system.iobus.pkt_count_system.pc.south_bridge.io_apic.int_master::system.ruby.l1_cntrl2.sequencer.pio-slave-port            2                       # Packet count per connected master and slave (bytes)
system.iobus.pkt_count_system.pc.south_bridge.io_apic.int_master::system.ruby.l1_cntrl3.sequencer.pio-slave-port            2                       # Packet count per connected master and slave (bytes)
system.iobus.pkt_count_system.pc.south_bridge.io_apic.int_master::total           10                       # Packet count per connected master and slave (bytes)
system.iobus.pkt_count_system.ruby.l1_cntrl0.sequencer.mem-master-port::system.pc.south_bridge.io_apic.pio            8                       # Packet count per connected master and slave (bytes)
system.iobus.pkt_count_system.ruby.l1_cntrl0.sequencer.mem-master-port::system.ruby.l1_cntrl0.sequencer.pio-slave-port          886                       # Packet count per connected master and slave (bytes)
system.iobus.pkt_count_system.ruby.l1_cntrl0.sequencer.mem-master-port::system.ruby.l1_cntrl1.sequencer.pio-slave-port            2                       # Packet count per connected master and slave (bytes)
system.iobus.pkt_count_system.ruby.l1_cntrl0.sequencer.mem-master-port::total          896                       # Packet count per connected master and slave (bytes)
system.iobus.pkt_count_system.ruby.l1_cntrl1.sequencer.mem-master-port::system.pc.south_bridge.io_apic.pio           14                       # Packet count per connected master and slave (bytes)
system.iobus.pkt_count_system.ruby.l1_cntrl1.sequencer.mem-master-port::system.pc.com_1.pio          162                       # Packet count per connected master and slave (bytes)
system.iobus.pkt_count_system.ruby.l1_cntrl1.sequencer.mem-master-port::system.ruby.l1_cntrl0.sequencer.pio-slave-port            2                       # Packet count per connected master and slave (bytes)
system.iobus.pkt_count_system.ruby.l1_cntrl1.sequencer.mem-master-port::system.ruby.l1_cntrl1.sequencer.pio-slave-port          892                       # Packet count per connected master and slave (bytes)
system.iobus.pkt_count_system.ruby.l1_cntrl1.sequencer.mem-master-port::system.ruby.l1_cntrl2.sequencer.pio-slave-port            2                       # Packet count per connected master and slave (bytes)
system.iobus.pkt_count_system.ruby.l1_cntrl1.sequencer.mem-master-port::total         1072                       # Packet count per connected master and slave (bytes)
system.iobus.pkt_count_system.ruby.l1_cntrl2.sequencer.mem-master-port::system.pc.south_bridge.io_apic.pio            8                       # Packet count per connected master and slave (bytes)
system.iobus.pkt_count_system.ruby.l1_cntrl2.sequencer.mem-master-port::system.ruby.l1_cntrl2.sequencer.pio-slave-port          884                       # Packet count per connected master and slave (bytes)
system.iobus.pkt_count_system.ruby.l1_cntrl2.sequencer.mem-master-port::system.ruby.l1_cntrl3.sequencer.pio-slave-port            2                       # Packet count per connected master and slave (bytes)
system.iobus.pkt_count_system.ruby.l1_cntrl2.sequencer.mem-master-port::total          894                       # Packet count per connected master and slave (bytes)
system.iobus.pkt_count_system.ruby.l1_cntrl3.sequencer.mem-master-port::system.pc.south_bridge.io_apic.pio            6                       # Packet count per connected master and slave (bytes)
system.iobus.pkt_count_system.ruby.l1_cntrl3.sequencer.mem-master-port::system.pc.com_1.pio           22                       # Packet count per connected master and slave (bytes)
system.iobus.pkt_count_system.ruby.l1_cntrl3.sequencer.mem-master-port::system.ruby.l1_cntrl0.sequencer.pio-slave-port            2                       # Packet count per connected master and slave (bytes)
system.iobus.pkt_count_system.ruby.l1_cntrl3.sequencer.mem-master-port::system.ruby.l1_cntrl1.sequencer.pio-slave-port            2                       # Packet count per connected master and slave (bytes)
system.iobus.pkt_count_system.ruby.l1_cntrl3.sequencer.mem-master-port::system.ruby.l1_cntrl2.sequencer.pio-slave-port            2                       # Packet count per connected master and slave (bytes)
system.iobus.pkt_count_system.ruby.l1_cntrl3.sequencer.mem-master-port::system.ruby.l1_cntrl3.sequencer.pio-slave-port          896                       # Packet count per connected master and slave (bytes)
system.iobus.pkt_count_system.ruby.l1_cntrl3.sequencer.mem-master-port::total          930                       # Packet count per connected master and slave (bytes)
system.iobus.pkt_count::total                    3802                       # Packet count per connected master and slave (bytes)
system.iobus.pkt_size_system.pc.south_bridge.io_apic.int_master::system.ruby.l1_cntrl0.sequencer.pio-slave-port            4                       # Cumulative packet size per connected master and slave (bytes)
system.iobus.pkt_size_system.pc.south_bridge.io_apic.int_master::system.ruby.l1_cntrl1.sequencer.pio-slave-port            8                       # Cumulative packet size per connected master and slave (bytes)
system.iobus.pkt_size_system.pc.south_bridge.io_apic.int_master::system.ruby.l1_cntrl2.sequencer.pio-slave-port            4                       # Cumulative packet size per connected master and slave (bytes)
system.iobus.pkt_size_system.pc.south_bridge.io_apic.int_master::system.ruby.l1_cntrl3.sequencer.pio-slave-port            4                       # Cumulative packet size per connected master and slave (bytes)
system.iobus.pkt_size_system.pc.south_bridge.io_apic.int_master::total           20                       # Cumulative packet size per connected master and slave (bytes)
system.iobus.pkt_size_system.ruby.l1_cntrl0.sequencer.mem-master-port::system.pc.south_bridge.io_apic.pio           16                       # Cumulative packet size per connected master and slave (bytes)
system.iobus.pkt_size_system.ruby.l1_cntrl0.sequencer.mem-master-port::system.ruby.l1_cntrl0.sequencer.pio-slave-port         1772                       # Cumulative packet size per connected master and slave (bytes)
system.iobus.pkt_size_system.ruby.l1_cntrl0.sequencer.mem-master-port::system.ruby.l1_cntrl1.sequencer.pio-slave-port            4                       # Cumulative packet size per connected master and slave (bytes)
system.iobus.pkt_size_system.ruby.l1_cntrl0.sequencer.mem-master-port::total         1792                       # Cumulative packet size per connected master and slave (bytes)
system.iobus.pkt_size_system.ruby.l1_cntrl1.sequencer.mem-master-port::system.pc.south_bridge.io_apic.pio           28                       # Cumulative packet size per connected master and slave (bytes)
system.iobus.pkt_size_system.ruby.l1_cntrl1.sequencer.mem-master-port::system.pc.com_1.pio           81                       # Cumulative packet size per connected master and slave (bytes)
system.iobus.pkt_size_system.ruby.l1_cntrl1.sequencer.mem-master-port::system.ruby.l1_cntrl0.sequencer.pio-slave-port            4                       # Cumulative packet size per connected master and slave (bytes)
system.iobus.pkt_size_system.ruby.l1_cntrl1.sequencer.mem-master-port::system.ruby.l1_cntrl1.sequencer.pio-slave-port         1784                       # Cumulative packet size per connected master and slave (bytes)
system.iobus.pkt_size_system.ruby.l1_cntrl1.sequencer.mem-master-port::system.ruby.l1_cntrl2.sequencer.pio-slave-port            4                       # Cumulative packet size per connected master and slave (bytes)
system.iobus.pkt_size_system.ruby.l1_cntrl1.sequencer.mem-master-port::total         1901                       # Cumulative packet size per connected master and slave (bytes)
system.iobus.pkt_size_system.ruby.l1_cntrl2.sequencer.mem-master-port::system.pc.south_bridge.io_apic.pio           16                       # Cumulative packet size per connected master and slave (bytes)
system.iobus.pkt_size_system.ruby.l1_cntrl2.sequencer.mem-master-port::system.ruby.l1_cntrl2.sequencer.pio-slave-port         1768                       # Cumulative packet size per connected master and slave (bytes)
system.iobus.pkt_size_system.ruby.l1_cntrl2.sequencer.mem-master-port::system.ruby.l1_cntrl3.sequencer.pio-slave-port            4                       # Cumulative packet size per connected master and slave (bytes)
system.iobus.pkt_size_system.ruby.l1_cntrl2.sequencer.mem-master-port::total         1788                       # Cumulative packet size per connected master and slave (bytes)
system.iobus.pkt_size_system.ruby.l1_cntrl3.sequencer.mem-master-port::system.pc.south_bridge.io_apic.pio           12                       # Cumulative packet size per connected master and slave (bytes)
system.iobus.pkt_size_system.ruby.l1_cntrl3.sequencer.mem-master-port::system.pc.com_1.pio           11                       # Cumulative packet size per connected master and slave (bytes)
system.iobus.pkt_size_system.ruby.l1_cntrl3.sequencer.mem-master-port::system.ruby.l1_cntrl0.sequencer.pio-slave-port            4                       # Cumulative packet size per connected master and slave (bytes)
system.iobus.pkt_size_system.ruby.l1_cntrl3.sequencer.mem-master-port::system.ruby.l1_cntrl1.sequencer.pio-slave-port            4                       # Cumulative packet size per connected master and slave (bytes)
system.iobus.pkt_size_system.ruby.l1_cntrl3.sequencer.mem-master-port::system.ruby.l1_cntrl2.sequencer.pio-slave-port            4                       # Cumulative packet size per connected master and slave (bytes)
system.iobus.pkt_size_system.ruby.l1_cntrl3.sequencer.mem-master-port::system.ruby.l1_cntrl3.sequencer.pio-slave-port         1792                       # Cumulative packet size per connected master and slave (bytes)
system.iobus.pkt_size_system.ruby.l1_cntrl3.sequencer.mem-master-port::total         1827                       # Cumulative packet size per connected master and slave (bytes)
system.iobus.pkt_size::total                     7328                       # Cumulative packet size per connected master and slave (bytes)
system.iobus.reqLayer8.occupancy                33996                       # Layer occupancy (ticks)
system.iobus.reqLayer8.utilization                0.0                       # Layer utilization (%)
system.iobus.reqLayer12.occupancy              118000                       # Layer occupancy (ticks)
system.iobus.reqLayer12.utilization               0.0                       # Layer utilization (%)
system.iobus.reqLayer17.occupancy             1111499                       # Layer occupancy (ticks)
system.iobus.reqLayer17.utilization               0.0                       # Layer utilization (%)
system.iobus.reqLayer18.occupancy             1127270                       # Layer occupancy (ticks)
system.iobus.reqLayer18.utilization               0.0                       # Layer utilization (%)
system.iobus.reqLayer19.occupancy             1108500                       # Layer occupancy (ticks)
system.iobus.reqLayer19.utilization               0.0                       # Layer utilization (%)
system.iobus.reqLayer20.occupancy             1117998                       # Layer occupancy (ticks)
system.iobus.reqLayer20.utilization               0.0                       # Layer utilization (%)
system.iobus.respLayer0.occupancy                7500                       # Layer occupancy (ticks)
system.iobus.respLayer0.utilization               0.0                       # Layer utilization (%)
system.iobus.respLayer2.occupancy              672500                       # Layer occupancy (ticks)
system.iobus.respLayer2.utilization               0.0                       # Layer utilization (%)
system.iobus.respLayer4.occupancy              823500                       # Layer occupancy (ticks)
system.iobus.respLayer4.utilization               0.0                       # Layer utilization (%)
system.iobus.respLayer6.occupancy              671000                       # Layer occupancy (ticks)
system.iobus.respLayer6.utilization               0.0                       # Layer utilization (%)
system.iobus.respLayer8.occupancy              701000                       # Layer occupancy (ticks)
system.iobus.respLayer8.utilization               0.0                       # Layer utilization (%)
system.pc.south_bridge.ide.disks.dma_read_full_pages            0                       # Number of full page size DMA reads (not PRD).
system.pc.south_bridge.ide.disks.dma_read_bytes            0                       # Number of bytes transfered via DMA reads (not PRD).
system.pc.south_bridge.ide.disks.dma_read_txs            0                       # Number of DMA read transactions (not PRD).
system.pc.south_bridge.ide.disks.dma_write_full_pages            0                       # Number of full page size DMA writes.
system.pc.south_bridge.ide.disks.dma_write_bytes            0                       # Number of bytes transfered via DMA writes.
system.pc.south_bridge.ide.disks.dma_write_txs            0                       # Number of DMA write transactions.
system.ruby.clk_domain.clock                      500                       # Clock period in ticks
system.ruby.outstanding_req_hist_seqr::bucket_size            1                      
system.ruby.outstanding_req_hist_seqr::max_bucket            9                      
system.ruby.outstanding_req_hist_seqr::samples   1225652417                      
system.ruby.outstanding_req_hist_seqr::mean     1.000000                      
system.ruby.outstanding_req_hist_seqr::gmean     1.000000                      
system.ruby.outstanding_req_hist_seqr::stdev     0.000441                      
system.ruby.outstanding_req_hist_seqr    |           0      0.00%      0.00% |  1225652179    100.00%    100.00% |         238      0.00%    100.00% |           0      0.00%    100.00% |           0      0.00%    100.00% |           0      0.00%    100.00% |           0      0.00%    100.00% |           0      0.00%    100.00% |           0      0.00%    100.00% |           0      0.00%    100.00%
system.ruby.outstanding_req_hist_seqr::total   1225652417                      
system.ruby.latency_hist_seqr::bucket_size          256                      
system.ruby.latency_hist_seqr::max_bucket         2559                      
system.ruby.latency_hist_seqr::samples     1225652417                      
system.ruby.latency_hist_seqr::mean          1.861246                      
system.ruby.latency_hist_seqr::gmean         1.061112                      
system.ruby.latency_hist_seqr::stdev        11.228711                      
system.ruby.latency_hist_seqr            |  1225415214     99.98%     99.98% |      138240      0.01%     99.99% |       91930      0.01%    100.00% |        5157      0.00%    100.00% |        1516      0.00%    100.00% |         289      0.00%    100.00% |          58      0.00%    100.00% |          11      0.00%    100.00% |           2      0.00%    100.00% |           0      0.00%    100.00%
system.ruby.latency_hist_seqr::total       1225652417                      
system.ruby.hit_latency_hist_seqr::bucket_size            2                      
system.ruby.hit_latency_hist_seqr::max_bucket           19                      
system.ruby.hit_latency_hist_seqr::samples   1218614266                      
system.ruby.hit_latency_hist_seqr::mean      1.133941                      
system.ruby.hit_latency_hist_seqr::gmean     1.032639                      
system.ruby.hit_latency_hist_seqr::stdev     1.149550                      
system.ruby.hit_latency_hist_seqr        |  1202292068     98.66%     98.66% |           0      0.00%     98.66% |           0      0.00%     98.66% |           0      0.00%     98.66% |           0      0.00%     98.66% |    16322198      1.34%    100.00% |           0      0.00%    100.00% |           0      0.00%    100.00% |           0      0.00%    100.00% |           0      0.00%    100.00%
system.ruby.hit_latency_hist_seqr::total   1218614266                      
system.ruby.miss_latency_hist_seqr::bucket_size          256                      
system.ruby.miss_latency_hist_seqr::max_bucket         2559                      
[...]
system.ruby.L1Cache_Controller.O.L1_to_L2::total        31299                      
system.ruby.L1Cache_Controller.O.Trigger_L2_to_L1D |         961     22.51%     22.51% |         647     15.15%     37.66% |         599     14.03%     51.69% |        2063     48.31%    100.00%
system.ruby.L1Cache_Controller.O.Trigger_L2_to_L1D::total         4270                      
system.ruby.L1Cache_Controller.O.Trigger_L2_to_L1I |         943      3.69%      3.69% |       11026     43.13%     46.82% |         510      1.99%     48.81% |       13086     51.19%    100.00%
system.ruby.L1Cache_Controller.O.Trigger_L2_to_L1I::total        25565                      
system.ruby.L1Cache_Controller.O.Other_GETX |        2889     24.37%     24.37% |         504      4.25%     28.62% |        3734     31.50%     60.12% |        4727     39.88%    100.00%
system.ruby.L1Cache_Controller.O.Other_GETX::total        11854                      
system.ruby.L1Cache_Controller.O.Other_GETS |        2555     12.62%     12.62% |         558      2.76%     15.37% |        3423     16.90%     32.28% |       13714     67.72%    100.00%
system.ruby.L1Cache_Controller.O.Other_GETS::total        20250                      
system.ruby.L1Cache_Controller.M.Load    |       78115      0.23%      0.23% |    33601893     98.97%     99.20% |       88299      0.26%     99.46% |      184892      0.54%    100.00%
system.ruby.L1Cache_Controller.M.Load::total     33953199                      
system.ruby.L1Cache_Controller.M.Ifetch  |      232739      0.02%      0.02% |  1007352670     99.47%     99.49% |     1269697      0.13%     99.62% |     3881059      0.38%    100.00%
system.ruby.L1Cache_Controller.M.Ifetch::total   1012736165                      
system.ruby.L1Cache_Controller.M.Store   |        1972      1.61%      1.61% |       96696     78.73%     80.33% |        2091      1.70%     82.03% |       22068     17.97%    100.00%
system.ruby.L1Cache_Controller.M.Store::total       122827                      
system.ruby.L1Cache_Controller.M.L2_Replacement |           1      0.00%      0.00% |     3309819     99.91%     99.91% |           7      0.00%     99.91% |        2821      0.09%    100.00%
system.ruby.L1Cache_Controller.M.L2_Replacement::total      3312648                      
system.ruby.L1Cache_Controller.M.L1_to_L2 |        7923      0.09%      0.09% |     9102169     99.72%     99.80% |        7035      0.08%     99.88% |       10786      0.12%    100.00%
system.ruby.L1Cache_Controller.M.L1_to_L2::total      9127913                      
system.ruby.L1Cache_Controller.M.Trigger_L2_to_L1D |         778      0.01%      0.01% |     5786528     99.90%     99.91% |        1623      0.03%     99.94% |        3623      0.06%    100.00%
system.ruby.L1Cache_Controller.M.Trigger_L2_to_L1D::total      5792552                      
system.ruby.L1Cache_Controller.M.Trigger_L2_to_L1I |        3426     43.20%     43.20% |        2984     37.62%     80.82% |        1269     16.00%     96.82% |         252      3.18%    100.00%
system.ruby.L1Cache_Controller.M.Trigger_L2_to_L1I::total         7931                      
system.ruby.L1Cache_Controller.M.Other_GETX |         252     10.80%     10.80% |         949     40.68%     51.48% |         950     40.72%     92.20% |         182      7.80%    100.00%
system.ruby.L1Cache_Controller.M.Other_GETX::total         2333                      
system.ruby.L1Cache_Controller.M.Other_GETS |        4098     23.57%     23.57% |        1278      7.35%     30.92% |        4491     25.83%     56.75% |        7521     43.25%    100.00%
system.ruby.L1Cache_Controller.M.Other_GETS::total        17388                      
system.ruby.L1Cache_Controller.M.Merged_GETS |           3      4.17%      4.17% |          39     54.17%     58.33% |           7      9.72%     68.06% |          23     31.94%    100.00%
system.ruby.L1Cache_Controller.M.Merged_GETS::total           72                      
system.ruby.L1Cache_Controller.MM.Load   |      416399      1.70%      1.70% |    20987552     85.47%     87.16% |      605040      2.46%     89.63% |     2547574     10.37%    100.00%
system.ruby.L1Cache_Controller.MM.Load::total     24556565                      
system.ruby.L1Cache_Controller.MM.Store  |      458777      0.62%      0.62% |    70222059     95.27%     95.89% |      667739      0.91%     96.80% |     2358519      3.20%    100.00%
system.ruby.L1Cache_Controller.MM.Store::total     73707094                      
system.ruby.L1Cache_Controller.MM.L2_Replacement |           0      0.00%      0.00% |     3638234     99.53%     99.53% |           4      0.00%     99.53% |       17078      0.47%    100.00%
system.ruby.L1Cache_Controller.MM.L2_Replacement::total      3655316                      
system.ruby.L1Cache_Controller.MM.L1_to_L2 |        9063      0.06%      0.06% |    13975672     98.72%     98.79% |       16917      0.12%     98.91% |      154565      1.09%    100.00%
system.ruby.L1Cache_Controller.MM.L1_to_L2::total     14156217                      
system.ruby.L1Cache_Controller.MM.Trigger_L2_to_L1D |        3371      0.03%      0.03% |    10311848     98.76%     98.79% |        6848      0.07%     98.86% |      119445      1.14%    100.00%
system.ruby.L1Cache_Controller.MM.Trigger_L2_to_L1D::total     10441512                      
system.ruby.L1Cache_Controller.MM.Other_GETX |        2325     20.59%     20.59% |        3635     32.19%     52.78% |        3200     28.34%     81.12% |        2132     18.88%    100.00%
system.ruby.L1Cache_Controller.MM.Other_GETX::total        11292                      
system.ruby.L1Cache_Controller.MM.Other_GETS |        5498     18.85%     18.85% |       12853     44.07%     62.92% |        6220     21.33%     84.25% |        4594     15.75%    100.00%
system.ruby.L1Cache_Controller.MM.Other_GETS::total        29165                      
system.ruby.L1Cache_Controller.MM.Merged_GETS |          54     20.22%     20.22% |          90     33.71%     53.93% |          83     31.09%     85.02% |          40     14.98%    100.00%
system.ruby.L1Cache_Controller.MM.Merged_GETS::total          267                      
system.ruby.L1Cache_Controller.SR.Load   |        2679      2.06%      2.06% |      118878     91.40%     93.46% |        3269      2.51%     95.98% |        5232      4.02%    100.00%
system.ruby.L1Cache_Controller.SR.Load::total       130058                      
system.ruby.L1Cache_Controller.SR.Ifetch |       24167     23.77%     23.77% |       37309     36.69%     60.46% |       23461     23.07%     83.54% |       16738     16.46%    100.00%
system.ruby.L1Cache_Controller.SR.Ifetch::total       101675                      
system.ruby.L1Cache_Controller.SR.Store  |           7      2.29%      2.29% |         159     51.96%     54.25% |          18      5.88%     60.13% |         122     39.87%    100.00%
system.ruby.L1Cache_Controller.SR.Store::total          306                      
system.ruby.L1Cache_Controller.OR.Load   |         958     22.57%     22.57% |         642     15.12%     37.69% |         594     13.99%     51.68% |        2051     48.32%    100.00%
system.ruby.L1Cache_Controller.OR.Load::total         4245                      
system.ruby.L1Cache_Controller.OR.Ifetch |         943      3.69%      3.69% |       11026     43.13%     46.82% |         510      1.99%     48.81% |       13086     51.19%    100.00%
system.ruby.L1Cache_Controller.OR.Ifetch::total        25565                      
system.ruby.L1Cache_Controller.OR.Store  |           3     12.00%     12.00% |           5     20.00%     32.00% |           5     20.00%     52.00% |          12     48.00%    100.00%
system.ruby.L1Cache_Controller.OR.Store::total           25                      
system.ruby.L1Cache_Controller.MR.Load   |         698      0.01%      0.01% |     5784422     99.92%     99.94% |        1241      0.02%     99.96% |        2471      0.04%    100.00%
system.ruby.L1Cache_Controller.MR.Load::total      5788832                      
system.ruby.L1Cache_Controller.MR.Ifetch |        3426     43.20%     43.20% |        2984     37.62%     80.82% |        1269     16.00%     96.82% |         252      3.18%    100.00%
system.ruby.L1Cache_Controller.MR.Ifetch::total         7931                      
system.ruby.L1Cache_Controller.MR.Store  |          80      2.15%      2.15% |        2106     56.61%     58.76% |         382     10.27%     69.03% |        1152     30.97%    100.00%
system.ruby.L1Cache_Controller.MR.Store::total         3720                      
system.ruby.L1Cache_Controller.MMR.Load  |        1060      0.03%      0.03% |     4137228     98.03%     98.06% |        4334      0.10%     98.16% |       77571      1.84%    100.00%
system.ruby.L1Cache_Controller.MMR.Load::total      4220193                      
system.ruby.L1Cache_Controller.MMR.Store |        2311      0.04%      0.04% |     6174620     99.25%     99.29% |        2514      0.04%     99.33% |       41874      0.67%    100.00%
system.ruby.L1Cache_Controller.MMR.Store::total      6221319                      
system.ruby.L1Cache_Controller.IM.Ack    |       13963      0.13%      0.13% |    10681297     99.39%     99.52% |       24427      0.23%     99.74% |       27476      0.26%    100.00%
system.ruby.L1Cache_Controller.IM.Ack::total     10747163                      
system.ruby.L1Cache_Controller.IM.Data   |        1662     37.36%     37.36% |         980     22.03%     59.38% |         778     17.49%     76.87% |        1029     23.13%    100.00%
system.ruby.L1Cache_Controller.IM.Data::total         4449                      
system.ruby.L1Cache_Controller.IM.Exclusive_Data |        4205      0.12%      0.12% |     3564016     99.29%     99.41% |        8666      0.24%     99.65% |       12534      0.35%    100.00%
system.ruby.L1Cache_Controller.IM.Exclusive_Data::total      3589421                      
system.ruby.L1Cache_Controller.SM.Ack    |        3505     38.11%     38.11% |        2302     25.03%     63.15% |        1030     11.20%     74.35% |        2359     25.65%    100.00%
system.ruby.L1Cache_Controller.SM.Ack::total         9196                      
system.ruby.L1Cache_Controller.SM.Data   |        2297     30.22%     30.22% |        2279     29.98%     60.19% |        1296     17.05%     77.24% |        1730     22.76%    100.00%
system.ruby.L1Cache_Controller.SM.Data::total         7602                      
system.ruby.L1Cache_Controller.OM.Ack    |          39      5.56%      5.56% |         210     29.91%     35.47% |         195     27.78%     63.25% |         258     36.75%    100.00%
system.ruby.L1Cache_Controller.OM.Ack::total          702                      
system.ruby.L1Cache_Controller.OM.All_acks_no_sharers |          13      5.56%      5.56% |          70     29.91%     35.47% |          65     27.78%     63.25% |          86     36.75%    100.00%
system.ruby.L1Cache_Controller.OM.All_acks_no_sharers::total          234                      
system.ruby.L1Cache_Controller.ISM.Ack   |        1810     18.76%     18.76% |        3302     34.23%     53.00% |        2702     28.01%     81.01% |        1832     18.99%    100.00%
system.ruby.L1Cache_Controller.ISM.Ack::total         9646                      
system.ruby.L1Cache_Controller.ISM.All_acks_no_sharers |        3959     32.85%     32.85% |        3259     27.04%     59.90% |        2074     17.21%     77.11% |        2759     22.89%    100.00%
system.ruby.L1Cache_Controller.ISM.All_acks_no_sharers::total        12051                      
system.ruby.L1Cache_Controller.M_W.Load  |          19      8.52%      8.52% |          77     34.53%     43.05% |          94     42.15%     85.20% |          33     14.80%    100.00%
system.ruby.L1Cache_Controller.M_W.Load::total          223                      
system.ruby.L1Cache_Controller.M_W.Store |           1      0.79%      0.79% |           8      6.30%      7.09% |          96     75.59%     82.68% |          22     17.32%    100.00%
system.ruby.L1Cache_Controller.M_W.Store::total          127                      
system.ruby.L1Cache_Controller.M_W.Ack   |        3588     12.42%     12.42% |        3146     10.89%     23.32% |        4068     14.09%     37.40% |       18077     62.60%    100.00%
system.ruby.L1Cache_Controller.M_W.Ack::total        28879                      
system.ruby.L1Cache_Controller.M_W.All_acks_no_sharers |        7795      0.23%      0.23% |     3412252     98.54%     98.76% |        9186      0.27%     99.03% |       33661      0.97%    100.00%
system.ruby.L1Cache_Controller.M_W.All_acks_no_sharers::total      3462894                      
system.ruby.L1Cache_Controller.MM_W.Store |         226      4.29%      4.29% |        1588     30.12%     34.40% |         451      8.55%     42.95% |        3008     57.05%    100.00%
system.ruby.L1Cache_Controller.MM_W.Store::total         5273                      
system.ruby.L1Cache_Controller.MM_W.Ack  |         559      4.28%      4.28% |        6025     46.14%     50.42% |        1071      8.20%     58.62% |        5404     41.38%    100.00%
system.ruby.L1Cache_Controller.MM_W.Ack::total        13059                      
system.ruby.L1Cache_Controller.MM_W.All_acks_no_sharers |        4206      0.12%      0.12% |     3564024     99.29%     99.41% |        8762      0.24%     99.65% |       12556      0.35%    100.00%
system.ruby.L1Cache_Controller.MM_W.All_acks_no_sharers::total      3589548                      
system.ruby.L1Cache_Controller.IS.Ack    |       23843      0.23%      0.23% |    10250721     98.73%     98.96% |       26388      0.25%     99.22% |       81210      0.78%    100.00%
system.ruby.L1Cache_Controller.IS.Ack::total     10382162                      
system.ruby.L1Cache_Controller.IS.Shared_Ack |        4936     11.44%     11.44% |       26028     60.30%     71.74% |        4356     10.09%     81.83% |        7841     18.17%    100.00%
system.ruby.L1Cache_Controller.IS.Shared_Ack::total        43161                      
system.ruby.L1Cache_Controller.IS.Data   |         947      5.71%      5.71% |        9044     54.56%     60.28% |         955      5.76%     66.04% |        5629     33.96%    100.00%
system.ruby.L1Cache_Controller.IS.Data::total        16575                      
system.ruby.L1Cache_Controller.IS.Shared_Data |        7857     20.69%     20.69% |       15322     40.34%     61.03% |        8248     21.72%     82.75% |        6552     17.25%    100.00%
system.ruby.L1Cache_Controller.IS.Shared_Data::total        37979                      
system.ruby.L1Cache_Controller.IS.Exclusive_Data |        7796      0.23%      0.23% |     3412260     98.53%     98.76% |        9282      0.27%     99.03% |       33683      0.97%    100.00%
system.ruby.L1Cache_Controller.IS.Exclusive_Data::total      3463021                      
system.ruby.L1Cache_Controller.SS.Load   |           5      1.13%      1.13% |         390     87.84%     88.96% |          36      8.11%     97.07% |          13      2.93%    100.00%
system.ruby.L1Cache_Controller.SS.Load::total          444                      
system.ruby.L1Cache_Controller.SS.Ifetch |         363      7.42%      7.42% |        2701     55.21%     62.63% |        1077     22.02%     84.65% |         751     15.35%    100.00%
system.ruby.L1Cache_Controller.SS.Ifetch::total         4892                      
system.ruby.L1Cache_Controller.SS.Store  |           0      0.00%      0.00% |          20     74.07%     74.07% |           3     11.11%     85.19% |           4     14.81%    100.00%
system.ruby.L1Cache_Controller.SS.Store::total           27                      
system.ruby.L1Cache_Controller.SS.Ack    |        4384     20.31%     20.31% |        6115     28.33%     48.64% |        5667     26.26%     74.90% |        5418     25.10%    100.00%
system.ruby.L1Cache_Controller.SS.Ack::total        21584                      
system.ruby.L1Cache_Controller.SS.Shared_Ack |        1051     11.69%     11.69% |        5127     57.04%     68.74% |        1597     17.77%     86.50% |        1213     13.50%    100.00%
system.ruby.L1Cache_Controller.SS.Shared_Ack::total         8988                      
system.ruby.L1Cache_Controller.SS.All_acks |        8720     16.85%     16.85% |       23492     45.39%     62.23% |        9170     17.72%     79.95% |       10379     20.05%    100.00%
system.ruby.L1Cache_Controller.SS.All_acks::total        51761                      
system.ruby.L1Cache_Controller.SS.All_acks_no_sharers |          84      3.01%      3.01% |         874     31.29%     34.30% |          33      1.18%     35.48% |        1802     64.52%    100.00%
system.ruby.L1Cache_Controller.SS.All_acks_no_sharers::total         2793                      
system.ruby.L1Cache_Controller.OI.Load   |           0      0.00%      0.00% |           4     30.77%     30.77% |           0      0.00%     30.77% |           9     69.23%    100.00%
system.ruby.L1Cache_Controller.OI.Load::total           13                      
system.ruby.L1Cache_Controller.OI.Ifetch |           0      0.00%      0.00% |           6     50.00%     50.00% |           0      0.00%     50.00% |           6     50.00%    100.00%
system.ruby.L1Cache_Controller.OI.Ifetch::total           12                      
system.ruby.L1Cache_Controller.OI.Writeback_Ack |           0      0.00%      0.00% |        4268     64.43%     64.43% |           2      0.03%     64.46% |        2354     35.54%    100.00%
system.ruby.L1Cache_Controller.OI.Writeback_Ack::total         6624                      
system.ruby.L1Cache_Controller.MI.Load   |           0      0.00%      0.00% |       51706     99.76%     99.76% |           0      0.00%     99.76% |         122      0.24%    100.00%
system.ruby.L1Cache_Controller.MI.Load::total        51828                      
system.ruby.L1Cache_Controller.MI.Ifetch |           0      0.00%      0.00% |          19     86.36%     86.36% |           0      0.00%     86.36% |           3     13.64%    100.00%
system.ruby.L1Cache_Controller.MI.Ifetch::total           22                      
system.ruby.L1Cache_Controller.MI.Store  |           0      0.00%      0.00% |       48178     99.82%     99.82% |           0      0.00%     99.82% |          89      0.18%    100.00%
system.ruby.L1Cache_Controller.MI.Store::total        48267                      
system.ruby.L1Cache_Controller.MI.Writeback_Ack |           1      0.00%      0.00% |     6948053     99.71%     99.71% |          11      0.00%     99.71% |       19899      0.29%    100.00%
system.ruby.L1Cache_Controller.MI.Writeback_Ack::total      6967964                      
system.ruby.L1Cache_Controller.ST.Complete_L2_to_L1 |       26853     11.57%     11.57% |      156346     67.38%     78.95% |       26748     11.53%     90.48% |       22092      9.52%    100.00%
system.ruby.L1Cache_Controller.ST.Complete_L2_to_L1::total       232039                      
system.ruby.L1Cache_Controller.OT.Complete_L2_to_L1 |        1904      6.38%      6.38% |       11673     39.13%     45.51% |        1109      3.72%     49.22% |       15149     50.78%    100.00%
system.ruby.L1Cache_Controller.OT.Complete_L2_to_L1::total        29835                      
system.ruby.L1Cache_Controller.MT.Complete_L2_to_L1 |        4204      0.07%      0.07% |     5789512     99.81%     99.88% |        2892      0.05%     99.93% |        3875      0.07%    100.00%
system.ruby.L1Cache_Controller.MT.Complete_L2_to_L1::total      5800483                      
system.ruby.L1Cache_Controller.MMT.Complete_L2_to_L1 |        3371      0.03%      0.03% |    10311848     98.76%     98.79% |        6848      0.07%     98.86% |      119445      1.14%    100.00%
system.ruby.L1Cache_Controller.MMT.Complete_L2_to_L1::total     10441512                      

---------- End Simulation Statistics   ----------
