
---------- Begin Simulation Statistics ----------
sim_seconds                                  2.199290                       # Number of seconds simulated
sim_ticks                                2199290360500                       # Number of ticks simulated
final_tick                               54540408566001                       # Number of ticks from beginning of simulation (restored from checkpoints and never reset)
sim_freq                                 1000000000000                       # Frequency of simulated ticks
host_inst_rate                                  95933                       # Simulator instruction rate (inst/s)
host_op_rate                                   143047                       # Simulator op (including micro ops) rate (op/s)
host_tick_rate                              290594127                       # Simulator tick rate (ticks/s)
host_mem_usage                                1994556                       # Number of bytes of host memory used
host_seconds                                  7568.26                       # Real time elapsed on the host
sim_insts                                   726044180                       # Number of instructions simulated
sim_ops                                    1082613687                       # Number of ops (including micro ops) simulated
system.voltage_domain.voltage                       1                       # Voltage in Volts
system.clk_domain.clock                          1000                       # Clock period in ticks
system.mem_ctrls.bytes_read::ruby.dir_cntrl0    377463904                       # Number of bytes read from this memory
system.mem_ctrls.bytes_read::total          377463904                       # Number of bytes read from this memory
system.mem_ctrls.bytes_written::ruby.dir_cntrl0    171222720                       # Number of bytes written to this memory
system.mem_ctrls.bytes_written::total       171222720                       # Number of bytes written to this memory
system.mem_ctrls.num_reads::ruby.dir_cntrl0     11795747                       # Number of read requests responded to by this memory
system.mem_ctrls.num_reads::total            11795747                       # Number of read requests responded to by this memory
system.mem_ctrls.num_writes::ruby.dir_cntrl0      5350710                       # Number of write requests responded to by this memory
system.mem_ctrls.num_writes::total            5350710                       # Number of write requests responded to by this memory
system.mem_ctrls.bw_read::ruby.dir_cntrl0    171629863                       # Total read bandwidth from this memory (bytes/s)
system.mem_ctrls.bw_read::total             171629863                       # Total read bandwidth from this memory (bytes/s)
system.mem_ctrls.bw_write::ruby.dir_cntrl0     77853622                       # Write bandwidth from this memory (bytes/s)
system.mem_ctrls.bw_write::total             77853622                       # Write bandwidth from this memory (bytes/s)
system.mem_ctrls.bw_total::ruby.dir_cntrl0    249483485                       # Total bandwidth to/from this memory (bytes/s)
system.mem_ctrls.bw_total::total            249483485                       # Total bandwidth to/from this memory (bytes/s)
system.mem_ctrls.readReqs                    11795747                       # Number of read requests accepted
system.mem_ctrls.writeReqs                    5350710                       # Number of write requests accepted
system.mem_ctrls.readBursts                  11795747                       # Number of DRAM read bursts, including those serviced by the write queue
system.mem_ctrls.writeBursts                  5350710                       # Number of DRAM write bursts, including those merged in the write queue
system.mem_ctrls.bytesReadDRAM              754454464                       # Total number of bytes read from DRAM
system.mem_ctrls.bytesReadWrQ                  473344                       # Total number of bytes read from write queue
system.mem_ctrls.bytesWritten               276555072                       # Total number of bytes written to DRAM
system.mem_ctrls.bytesReadSys               377463904                       # Total read bytes from the system interface side
system.mem_ctrls.bytesWrittenSys            171222720                       # Total written bytes from the system interface side
system.mem_ctrls.servicedByWrQ                   7396                       # Number of DRAM read bursts serviced by the write queue
system.mem_ctrls.mergedWrBursts               1029534                       # Number of DRAM write bursts merged with an existing one
system.mem_ctrls.neitherReadNorWriteReqs            0                       # Number of requests that are neither read nor write
system.mem_ctrls.perBankRdBursts::0            743056                       # Per bank write bursts
system.mem_ctrls.perBankRdBursts::1            749911                       # Per bank write bursts
system.mem_ctrls.perBankRdBursts::2            731823                       # Per bank write bursts
system.mem_ctrls.perBankRdBursts::3            734456                       # Per bank write bursts
system.mem_ctrls.perBankRdBursts::4            742576                       # Per bank write bursts
system.mem_ctrls.perBankRdBursts::5            736169                       # Per bank write bursts
system.mem_ctrls.perBankRdBursts::6            750658                       # Per bank write bursts
system.mem_ctrls.perBankRdBursts::7            736013                       # Per bank write bursts
system.mem_ctrls.perBankRdBursts::8            734333                       # Per bank write bursts
system.mem_ctrls.perBankRdBursts::9            735062                       # Per bank write bursts
system.mem_ctrls.perBankRdBursts::10           728171                       # Per bank write bursts
system.mem_ctrls.perBankRdBursts::11           731955                       # Per bank write bursts
system.mem_ctrls.perBankRdBursts::12           729358                       # Per bank write bursts
system.mem_ctrls.perBankRdBursts::13           731426                       # Per bank write bursts
system.mem_ctrls.perBankRdBursts::14           731807                       # Per bank write bursts
system.mem_ctrls.perBankRdBursts::15           741577                       # Per bank write bursts
system.mem_ctrls.perBankWrBursts::0            273829                       # Per bank write bursts
system.mem_ctrls.perBankWrBursts::1            277657                       # Per bank write bursts
system.mem_ctrls.perBankWrBursts::2            263915                       # Per bank write bursts
system.mem_ctrls.perBankWrBursts::3            268532                       # Per bank write bursts
system.mem_ctrls.perBankWrBursts::4            275052                       # Per bank write bursts
system.mem_ctrls.perBankWrBursts::5            270173                       # Per bank write bursts
system.mem_ctrls.perBankWrBursts::6            282532                       # Per bank write bursts
system.mem_ctrls.perBankWrBursts::7            273738                       # Per bank write bursts
system.mem_ctrls.perBankWrBursts::8            273726                       # Per bank write bursts
system.mem_ctrls.perBankWrBursts::9            271679                       # Per bank write bursts
system.mem_ctrls.perBankWrBursts::10           263040                       # Per bank write bursts
system.mem_ctrls.perBankWrBursts::11           264229                       # Per bank write bursts
system.mem_ctrls.perBankWrBursts::12           267799                       # Per bank write bursts
system.mem_ctrls.perBankWrBursts::13           262081                       # Per bank write bursts
system.mem_ctrls.perBankWrBursts::14           263542                       # Per bank write bursts
system.mem_ctrls.perBankWrBursts::15           269649                       # Per bank write bursts
system.mem_ctrls.numRdRetry                         0                       # Number of times read queue was full causing retry
system.mem_ctrls.numWrRetry                         0                       # Number of times write queue was full causing retry
system.mem_ctrls.totGap                  2199290384500                       # Total gap between requests
system.mem_ctrls.readPktSize::0                     0                       # Read request sizes (log2)
system.mem_ctrls.readPktSize::1                     0                       # Read request sizes (log2)
system.mem_ctrls.readPktSize::2                     0                       # Read request sizes (log2)
system.mem_ctrls.readPktSize::3                     0                       # Read request sizes (log2)
system.mem_ctrls.readPktSize::4                     0                       # Read request sizes (log2)
system.mem_ctrls.readPktSize::5              11795747                       # Read request sizes (log2)
system.mem_ctrls.readPktSize::6                     0                       # Read request sizes (log2)
system.mem_ctrls.writePktSize::0                    0                       # Write request sizes (log2)
system.mem_ctrls.writePktSize::1                    0                       # Write request sizes (log2)
system.mem_ctrls.writePktSize::2                    0                       # Write request sizes (log2)
system.mem_ctrls.writePktSize::3                    0                       # Write request sizes (log2)
system.mem_ctrls.writePktSize::4                    0                       # Write request sizes (log2)
system.mem_ctrls.writePktSize::5              5350710                       # Write request sizes (log2)
system.mem_ctrls.writePktSize::6                    0                       # Write request sizes (log2)
system.mem_ctrls.rdQLenPdf::0                11745393                       # What read queue length does an incoming req see
system.mem_ctrls.rdQLenPdf::1                   42943                       # What read queue length does an incoming req see
system.mem_ctrls.rdQLenPdf::2                      15                       # What read queue length does an incoming req see
system.mem_ctrls.rdQLenPdf::3                       0                       # What read queue length does an incoming req see
system.mem_ctrls.rdQLenPdf::4                       0                       # What read queue length does an incoming req see
system.mem_ctrls.rdQLenPdf::5                       0                       # What read queue length does an incoming req see
system.mem_ctrls.rdQLenPdf::6                       0                       # What read queue length does an incoming req see
system.mem_ctrls.rdQLenPdf::7                       0                       # What read queue length does an incoming req see
system.mem_ctrls.rdQLenPdf::8                       0                       # What read queue length does an incoming req see
system.mem_ctrls.rdQLenPdf::9                       0                       # What read queue length does an incoming req see
system.mem_ctrls.rdQLenPdf::10                      0                       # What read queue length does an incoming req see
system.mem_ctrls.rdQLenPdf::11                      0                       # What read queue length does an incoming req see
system.mem_ctrls.rdQLenPdf::12                      0                       # What read queue length does an incoming req see
system.mem_ctrls.rdQLenPdf::13                      0                       # What read queue length does an incoming req see
system.mem_ctrls.rdQLenPdf::14                      0                       # What read queue length does an incoming req see
system.mem_ctrls.rdQLenPdf::15                      0                       # What read queue length does an incoming req see
system.mem_ctrls.rdQLenPdf::16                      0                       # What read queue length does an incoming req see
system.mem_ctrls.rdQLenPdf::17                      0                       # What read queue length does an incoming req see
system.mem_ctrls.rdQLenPdf::18                      0                       # What read queue length does an incoming req see
system.mem_ctrls.rdQLenPdf::19                      0                       # What read queue length does an incoming req see
system.mem_ctrls.rdQLenPdf::20                      0                       # What read queue length does an incoming req see
system.mem_ctrls.rdQLenPdf::21                      0                       # What read queue length does an incoming req see
system.mem_ctrls.rdQLenPdf::22                      0                       # What read queue length does an incoming req see
system.mem_ctrls.rdQLenPdf::23                      0                       # What read queue length does an incoming req see
system.mem_ctrls.rdQLenPdf::24                      0                       # What read queue length does an incoming req see
system.mem_ctrls.rdQLenPdf::25                      0                       # What read queue length does an incoming req see
system.mem_ctrls.rdQLenPdf::26                      0                       # What read queue length does an incoming req see
system.mem_ctrls.rdQLenPdf::27                      0                       # What read queue length does an incoming req see
system.mem_ctrls.rdQLenPdf::28                      0                       # What read queue length does an incoming req see
system.mem_ctrls.rdQLenPdf::29                      0                       # What read queue length does an incoming req see
system.mem_ctrls.rdQLenPdf::30                      0                       # What read queue length does an incoming req see
system.mem_ctrls.rdQLenPdf::31                      0                       # What read queue length does an incoming req see
system.mem_ctrls.wrQLenPdf::0                       0                       # What write queue length does an incoming req see
system.mem_ctrls.wrQLenPdf::1                       0                       # What write queue length does an incoming req see
system.mem_ctrls.wrQLenPdf::2                       0                       # What write queue length does an incoming req see
system.mem_ctrls.wrQLenPdf::3                       0                       # What write queue length does an incoming req see
system.mem_ctrls.wrQLenPdf::4                       0                       # What write queue length does an incoming req see
system.mem_ctrls.wrQLenPdf::5                       0                       # What write queue length does an incoming req see
system.mem_ctrls.wrQLenPdf::6                       0                       # What write queue length does an incoming req see
system.mem_ctrls.wrQLenPdf::7                       0                       # What write queue length does an incoming req see
system.mem_ctrls.wrQLenPdf::8                       0                       # What write queue length does an incoming req see
system.mem_ctrls.wrQLenPdf::9                       0                       # What write queue length does an incoming req see
system.mem_ctrls.wrQLenPdf::10                      0                       # What write queue length does an incoming req see
system.mem_ctrls.wrQLenPdf::11                      0                       # What write queue length does an incoming req see
system.mem_ctrls.wrQLenPdf::12                      0                       # What write queue length does an incoming req see
system.mem_ctrls.wrQLenPdf::13                      0                       # What write queue length does an incoming req see
system.mem_ctrls.wrQLenPdf::14                      0                       # What write queue length does an incoming req see
system.mem_ctrls.wrQLenPdf::15                   1580                       # What write queue length does an incoming req see
system.mem_ctrls.wrQLenPdf::16                   2121                       # What write queue length does an incoming req see
system.mem_ctrls.wrQLenPdf::17                 266221                       # What write queue length does an incoming req see
system.mem_ctrls.wrQLenPdf::18                 270030                       # What write queue length does an incoming req see
system.mem_ctrls.wrQLenPdf::19                 270209                       # What write queue length does an incoming req see
system.mem_ctrls.wrQLenPdf::20                 270220                       # What write queue length does an incoming req see
system.mem_ctrls.wrQLenPdf::21                 270217                       # What write queue length does an incoming req see
system.mem_ctrls.wrQLenPdf::22                 270175                       # What write queue length does an incoming req see
system.mem_ctrls.wrQLenPdf::23                 270248                       # What write queue length does an incoming req see
system.mem_ctrls.wrQLenPdf::24                 270167                       # What write queue length does an incoming req see
system.mem_ctrls.wrQLenPdf::25                 270082                       # What write queue length does an incoming req see
system.mem_ctrls.wrQLenPdf::26                 270053                       # What write queue length does an incoming req see
system.mem_ctrls.wrQLenPdf::27                 269999                       # What write queue length does an incoming req see
system.mem_ctrls.wrQLenPdf::28                 270015                       # What write queue length does an incoming req see
system.mem_ctrls.wrQLenPdf::29                 269969                       # What write queue length does an incoming req see
system.mem_ctrls.wrQLenPdf::30                 269980                       # What write queue length does an incoming req see
system.mem_ctrls.wrQLenPdf::31                 269995                       # What write queue length does an incoming req see
system.mem_ctrls.wrQLenPdf::32                 269875                       # What write queue length does an incoming req see
system.mem_ctrls.wrQLenPdf::33                     20                       # What write queue length does an incoming req see
system.mem_ctrls.wrQLenPdf::34                      0                       # What write queue length does an incoming req see
system.mem_ctrls.wrQLenPdf::35                      0                       # What write queue length does an incoming req see
system.mem_ctrls.wrQLenPdf::36                      0                       # What write queue length does an incoming req see
system.mem_ctrls.wrQLenPdf::37                      0                       # What write queue length does an incoming req see
system.mem_ctrls.wrQLenPdf::38                      0                       # What write queue length does an incoming req see
system.mem_ctrls.wrQLenPdf::39                      0                       # What write queue length does an incoming req see
system.mem_ctrls.wrQLenPdf::40                      0                       # What write queue length does an incoming req see
system.mem_ctrls.wrQLenPdf::41                      0                       # What write queue length does an incoming req see
system.mem_ctrls.wrQLenPdf::42                      0                       # What write queue length does an incoming req see
system.mem_ctrls.wrQLenPdf::43                      0                       # What write queue length does an incoming req see
system.mem_ctrls.wrQLenPdf::44                      0                       # What write queue length does an incoming req see
system.mem_ctrls.wrQLenPdf::45                      0                       # What write queue length does an incoming req see
system.mem_ctrls.wrQLenPdf::46                      0                       # What write queue length does an incoming req see
system.mem_ctrls.wrQLenPdf::47                      0                       # What write queue length does an incoming req see
system.mem_ctrls.wrQLenPdf::48                      0                       # What write queue length does an incoming req see
system.mem_ctrls.wrQLenPdf::49                      0                       # What write queue length does an incoming req see
system.mem_ctrls.wrQLenPdf::50                      0                       # What write queue length does an incoming req see
system.mem_ctrls.wrQLenPdf::51                      0                       # What write queue length does an incoming req see
system.mem_ctrls.wrQLenPdf::52                      0                       # What write queue length does an incoming req see
system.mem_ctrls.wrQLenPdf::53                      0                       # What write queue length does an incoming req see
system.mem_ctrls.wrQLenPdf::54                      0                       # What write queue length does an incoming req see
system.mem_ctrls.wrQLenPdf::55                      0                       # What write queue length does an incoming req see
system.mem_ctrls.wrQLenPdf::56                      0                       # What write queue length does an incoming req see
system.mem_ctrls.wrQLenPdf::57                      0                       # What write queue length does an incoming req see
system.mem_ctrls.wrQLenPdf::58                      0                       # What write queue length does an incoming req see
system.mem_ctrls.wrQLenPdf::59                      0                       # What write queue length does an incoming req see
system.mem_ctrls.wrQLenPdf::60                      0                       # What write queue length does an incoming req see
system.mem_ctrls.wrQLenPdf::61                      0                       # What write queue length does an incoming req see
system.mem_ctrls.wrQLenPdf::62                      0                       # What write queue length does an incoming req see
system.mem_ctrls.wrQLenPdf::63                      0                       # What write queue length does an incoming req see
system.mem_ctrls.bytesPerActivate::samples      6805684                       # Bytes accessed per row activation
system.mem_ctrls.bytesPerActivate::mean    151.492410                       # Bytes accessed per row activation
system.mem_ctrls.bytesPerActivate::gmean    90.804803                       # Bytes accessed per row activation
system.mem_ctrls.bytesPerActivate::stdev   237.459059                       # Bytes accessed per row activation
system.mem_ctrls.bytesPerActivate::0-127      5435845     79.87%     79.87% # Bytes accessed per row activation
system.mem_ctrls.bytesPerActivate::128-255       505467      7.43%     87.30% # Bytes accessed per row activation
system.mem_ctrls.bytesPerActivate::256-383       155340      2.28%     89.58% # Bytes accessed per row activation
system.mem_ctrls.bytesPerActivate::384-511       113782      1.67%     91.25% # Bytes accessed per row activation
system.mem_ctrls.bytesPerActivate::512-639        89275      1.31%     92.57% # Bytes accessed per row activation
system.mem_ctrls.bytesPerActivate::640-767        73007      1.07%     93.64% # Bytes accessed per row activation
system.mem_ctrls.bytesPerActivate::768-895        63586      0.93%     94.57% # Bytes accessed per row activation
system.mem_ctrls.bytesPerActivate::896-1023        57880      0.85%     95.42% # Bytes accessed per row activation
system.mem_ctrls.bytesPerActivate::1024-1151       311502      4.58%    100.00% # Bytes accessed per row activation
system.mem_ctrls.bytesPerActivate::total      6805684                       # Bytes accessed per row activation
system.mem_ctrls.rdPerTurnAround::samples       269830                       # Reads before turning the bus around for writes
system.mem_ctrls.rdPerTurnAround::mean      43.693900                       # Reads before turning the bus around for writes
system.mem_ctrls.rdPerTurnAround::gmean     31.183788                       # Reads before turning the bus around for writes
system.mem_ctrls.rdPerTurnAround::stdev    269.433220                       # Reads before turning the bus around for writes
system.mem_ctrls.rdPerTurnAround::0-1023       269204     99.77%     99.77% # Reads before turning the bus around for writes
system.mem_ctrls.rdPerTurnAround::1024-2047          114      0.04%     99.81% # Reads before turning the bus around for writes
system.mem_ctrls.rdPerTurnAround::2048-3071           98      0.04%     99.85% # Reads before turning the bus around for writes
system.mem_ctrls.rdPerTurnAround::3072-4095          132      0.05%     99.90% # Reads before turning the bus around for writes
system.mem_ctrls.rdPerTurnAround::4096-5119           70      0.03%     99.92% # Reads before turning the bus around for writes
system.mem_ctrls.rdPerTurnAround::5120-6143           53      0.02%     99.94% # Reads before turning the bus around for writes
system.mem_ctrls.rdPerTurnAround::6144-7167           26      0.01%     99.95% # Reads before turning the bus around for writes
system.mem_ctrls.rdPerTurnAround::7168-8191           62      0.02%     99.97% # Reads before turning the bus around for writes
system.mem_ctrls.rdPerTurnAround::8192-9215           21      0.01%     99.98% # Reads before turning the bus around for writes
system.mem_ctrls.rdPerTurnAround::9216-10239           11      0.00%     99.99% # Reads before turning the bus around for writes
system.mem_ctrls.rdPerTurnAround::10240-11263            9      0.00%     99.99% # Reads before turning the bus around for writes
system.mem_ctrls.rdPerTurnAround::11264-12287           13      0.00%     99.99% # Reads before turning the bus around for writes
system.mem_ctrls.rdPerTurnAround::12288-13311            4      0.00%    100.00% # Reads before turning the bus around for writes
system.mem_ctrls.rdPerTurnAround::13312-14335            5      0.00%    100.00% # Reads before turning the bus around for writes
system.mem_ctrls.rdPerTurnAround::14336-15359            2      0.00%    100.00% # Reads before turning the bus around for writes
system.mem_ctrls.rdPerTurnAround::15360-16383            3      0.00%    100.00% # Reads before turning the bus around for writes
system.mem_ctrls.rdPerTurnAround::16384-17407            1      0.00%    100.00% # Reads before turning the bus around for writes
system.mem_ctrls.rdPerTurnAround::20480-21503            2      0.00%    100.00% # Reads before turning the bus around for writes
system.mem_ctrls.rdPerTurnAround::total        269830                       # Reads before turning the bus around for writes
system.mem_ctrls.wrPerTurnAround::samples       269830                       # Writes before turning the bus around for reads
system.mem_ctrls.wrPerTurnAround::mean      16.014428                       # Writes before turning the bus around for reads
system.mem_ctrls.wrPerTurnAround::gmean     16.013642                       # Writes before turning the bus around for reads
system.mem_ctrls.wrPerTurnAround::stdev      0.164806                       # Writes before turning the bus around for reads
system.mem_ctrls.wrPerTurnAround::16           267668     99.20%     99.20% # Writes before turning the bus around for reads
system.mem_ctrls.wrPerTurnAround::17              445      0.16%     99.36% # Writes before turning the bus around for reads
system.mem_ctrls.wrPerTurnAround::18             1704      0.63%    100.00% # Writes before turning the bus around for reads
system.mem_ctrls.wrPerTurnAround::19               12      0.00%    100.00% # Writes before turning the bus around for reads
system.mem_ctrls.wrPerTurnAround::20                1      0.00%    100.00% # Writes before turning the bus around for reads
system.mem_ctrls.wrPerTurnAround::total        269830                       # Writes before turning the bus around for reads
system.mem_ctrls.totQLat                 187914069986                       # Total ticks spent queuing
system.mem_ctrls.totMemAccLat            408945651236                       # Total ticks spent from burst creation until serviced by the DRAM
system.mem_ctrls.totBusLat                58941755000                       # Total ticks spent in databus transfers
system.mem_ctrls.avgQLat                     15940.66                       # Average queueing delay per DRAM burst
system.mem_ctrls.avgBusLat                    5000.00                       # Average bus latency per DRAM burst
system.mem_ctrls.avgMemAccLat                34690.66                       # Average memory access latency per DRAM burst
system.mem_ctrls.avgRdBW                       343.04                       # Average DRAM read bandwidth in MiByte/s
system.mem_ctrls.avgWrBW                       125.75                       # Average achieved write bandwidth in MiByte/s
system.mem_ctrls.avgRdBWSys                    171.63                       # Average system read bandwidth in MiByte/s
system.mem_ctrls.avgWrBWSys                     77.85                       # Average system write bandwidth in MiByte/s
system.mem_ctrls.peakBW                      12800.00                       # Theoretical peak bandwidth in MiByte/s
system.mem_ctrls.busUtil                         3.66                       # Data bus utilization in percentage
system.mem_ctrls.busUtilRead                     2.68                       # Data bus utilization in percentage for reads
system.mem_ctrls.busUtilWrite                    0.98                       # Data bus utilization in percentage for writes
system.mem_ctrls.avgRdQLen                       1.00                       # Average read queue length when enqueuing
system.mem_ctrls.avgWrQLen                      25.65                       # Average write queue length when enqueuing
system.mem_ctrls.readRowHits                  7665924                       # Number of row buffer hits during reads
system.mem_ctrls.writeRowHits                 1637916                       # Number of row buffer hits during writes
system.mem_ctrls.readRowHitRate                 65.03                       # Row buffer hit rate for reads
system.mem_ctrls.writeRowHitRate                37.90                       # Row buffer hit rate for writes
system.mem_ctrls.avgGap                     128265.00                       # Average gap between requests
system.mem_ctrls.pageHitRate                    57.75                       # Row buffer hit rate, read and write combined
system.mem_ctrls_0.actEnergy              25962672960                       # Energy for activate commands per rank (pJ)
system.mem_ctrls_0.preEnergy              14166141000                       # Energy for precharge commands per rank (pJ)
system.mem_ctrls_0.readEnergy             46336360200                       # Energy for read commands per rank (pJ)
system.mem_ctrls_0.writeEnergy            14162085360                       # Energy for write commands per rank (pJ)
system.mem_ctrls_0.refreshEnergy         143920445760                       # Energy for refresh commands per rank (pJ)
system.mem_ctrls_0.actBackEnergy         829942168725                       # Energy for active background per rank (pJ)
system.mem_ctrls_0.preBackEnergy         594067272750                       # Energy for precharge background per rank (pJ)
system.mem_ctrls_0.totalEnergy           1668557146755                       # Total energy per rank (pJ)
system.mem_ctrls_0.averagePower            757.237989                       # Core power per rank (mW)
system.mem_ctrls_0.memoryStateTime::IDLE 979716281751                       # Time in different power states
system.mem_ctrls_0.memoryStateTime::REF   73439080000                       # Time in different power states
system.mem_ctrls_0.memoryStateTime::PRE_PDN            0                       # Time in different power states
system.mem_ctrls_0.memoryStateTime::ACT  1146129596249                       # Time in different power states
system.mem_ctrls_0.memoryStateTime::ACT_PDN            0                       # Time in different power states
system.mem_ctrls_1.actEnergy              25527164040                       # Energy for activate commands per rank (pJ)
system.mem_ctrls_1.preEnergy              13928512125                       # Energy for precharge commands per rank (pJ)
system.mem_ctrls_1.readEnergy             45833720400                       # Energy for read commands per rank (pJ)
system.mem_ctrls_1.writeEnergy            13839634080                       # Energy for write commands per rank (pJ)
system.mem_ctrls_1.refreshEnergy         143920445760                       # Energy for refresh commands per rank (pJ)
system.mem_ctrls_1.actBackEnergy         823438604385                       # Energy for active background per rank (pJ)
system.mem_ctrls_1.preBackEnergy         599772153750                       # Energy for precharge background per rank (pJ)
system.mem_ctrls_1.totalEnergy           1666260234540                       # Total energy per rank (pJ)
system.mem_ctrls_1.averagePower            756.195586                       # Core power per rank (mW)
system.mem_ctrls_1.memoryStateTime::IDLE 988980574502                       # Time in different power states
system.mem_ctrls_1.memoryStateTime::REF   73439080000                       # Time in different power states
system.mem_ctrls_1.memoryStateTime::PRE_PDN            0                       # Time in different power states
system.mem_ctrls_1.memoryStateTime::ACT  1136872278498                       # Time in different power states
system.mem_ctrls_1.memoryStateTime::ACT_PDN            0                       # Time in different power states
system.cpu_voltage_domain.voltage                   1                       # Voltage in Volts
system.cpu_clk_domain.clock                       500                       # Clock period in ticks
system.cpu0.apic_clk_domain.clock                8000                       # Clock period in ticks
system.cpu0.numCycles                      4399299182                       # number of cpu cycles simulated
system.cpu0.numWorkItemsStarted                     0                       # number of work items this cpu started
system.cpu0.numWorkItemsCompleted                   0                       # number of work items this cpu completed
system.cpu0.kern.inst.arm                           0                       # number of arm instructions executed
system.cpu0.kern.inst.quiesce                       0                       # number of quiesce instructions executed
system.cpu0.committedInsts                    1795207                       # Number of instructions committed
system.cpu0.committedOps                      3907738                       # Number of ops (including micro ops) committed
system.cpu0.num_int_alu_accesses              3823087                       # Number of integer alu accesses
system.cpu0.num_fp_alu_accesses                    39                       # Number of float alu accesses
system.cpu0.num_func_calls                     115014                       # number of times a function call or return occured
system.cpu0.num_conditional_control_insts       258584                       # number of instructions that are conditional controls
system.cpu0.num_int_insts                     3823087                       # number of integer instructions
system.cpu0.num_fp_insts                           39                       # number of float instructions
system.cpu0.num_int_register_reads            7775668                       # number of times the integer registers were read
system.cpu0.num_int_register_writes           3166466                       # number of times the integer registers were written
system.cpu0.num_fp_register_reads                  63                       # number of times the floating registers were read
system.cpu0.num_fp_register_writes                 31                       # number of times the floating registers were written
system.cpu0.num_cc_register_reads             2157023                       # number of times the CC registers were read
system.cpu0.num_cc_register_writes            1167786                       # number of times the CC registers were written
system.cpu0.num_mem_refs                       923578                       # number of memory refs
system.cpu0.num_load_insts                     569205                       # Number of load instructions
system.cpu0.num_store_insts                    354373                       # Number of store instructions
system.cpu0.num_idle_cycles              4386134302.009189                       # Number of idle cycles
system.cpu0.num_busy_cycles              13164879.990811                       # Number of busy cycles
system.cpu0.not_idle_fraction                0.002992                       # Percentage of non-idle cycles
system.cpu0.idle_fraction                    0.997008                       # Percentage of idle cycles
system.cpu0.Branches                           408830                       # Number of branches fetched
system.cpu0.op_class::No_OpClass                68075      1.74%      1.74% # Class of executed instruction
system.cpu0.op_class::IntAlu                  2886081     73.86%     75.60% # Class of executed instruction
system.cpu0.op_class::IntMult                    7261      0.19%     75.78% # Class of executed instruction
system.cpu0.op_class::IntDiv                    22735      0.58%     76.36% # Class of executed instruction
system.cpu0.op_class::FloatAdd                     30      0.00%     76.37% # Class of executed instruction
system.cpu0.op_class::FloatCmp                      0      0.00%     76.37% # Class of executed instruction
system.cpu0.op_class::FloatCvt                      0      0.00%     76.37% # Class of executed instruction
system.cpu0.op_class::FloatMult                     0      0.00%     76.37% # Class of executed instruction
system.cpu0.op_class::FloatDiv                      0      0.00%     76.37% # Class of executed instruction
system.cpu0.op_class::FloatSqrt                     0      0.00%     76.37% # Class of executed instruction
system.cpu0.op_class::SimdAdd                       0      0.00%     76.37% # Class of executed instruction
system.cpu0.op_class::SimdAddAcc                    0      0.00%     76.37% # Class of executed instruction
system.cpu0.op_class::SimdAlu                       0      0.00%     76.37% # Class of executed instruction
system.cpu0.op_class::SimdCmp                       0      0.00%     76.37% # Class of executed instruction
system.cpu0.op_class::SimdCvt                       0      0.00%     76.37% # Class of executed instruction
system.cpu0.op_class::SimdMisc                      0      0.00%     76.37% # Class of executed instruction
system.cpu0.op_class::SimdMult                      0      0.00%     76.37% # Class of executed instruction
system.cpu0.op_class::SimdMultAcc                   0      0.00%     76.37% # Class of executed instruction
system.cpu0.op_class::SimdShift                     0      0.00%     76.37% # Class of executed instruction
system.cpu0.op_class::SimdShiftAcc                  0      0.00%     76.37% # Class of executed instruction
system.cpu0.op_class::SimdSqrt                      0      0.00%     76.37% # Class of executed instruction
system.cpu0.op_class::SimdFloatAdd                  0      0.00%     76.37% # Class of executed instruction
system.cpu0.op_class::SimdFloatAlu                  0      0.00%     76.37% # Class of executed instruction
system.cpu0.op_class::SimdFloatCmp                  0      0.00%     76.37% # Class of executed instruction
system.cpu0.op_class::SimdFloatCvt                  0      0.00%     76.37% # Class of executed instruction
system.cpu0.op_class::SimdFloatDiv                  0      0.00%     76.37% # Class of executed instruction
system.cpu0.op_class::SimdFloatMisc                 0      0.00%     76.37% # Class of executed instruction
system.cpu0.op_class::SimdFloatMult                 0      0.00%     76.37% # Class of executed instruction
system.cpu0.op_class::SimdFloatMultAcc              0      0.00%     76.37% # Class of executed instruction
system.cpu0.op_class::SimdFloatSqrt                 0      0.00%     76.37% # Class of executed instruction
system.cpu0.op_class::MemRead                  569205     14.57%     90.93% # Class of executed instruction
system.cpu0.op_class::MemWrite                 354373      9.07%    100.00% # Class of executed instruction
system.cpu0.op_class::IprAccess                     0      0.00%    100.00% # Class of executed instruction
system.cpu0.op_class::InstPrefetch                  0      0.00%    100.00% # Class of executed instruction
system.cpu0.op_class::total                   3907760                       # Class of executed instruction
system.cpu1.apic_clk_domain.clock                8000                       # Clock period in ticks
system.cpu1.numCycles                      4400812885                       # number of cpu cycles simulated
system.cpu1.numWorkItemsStarted                     0                       # number of work items this cpu started
system.cpu1.numWorkItemsCompleted                   0                       # number of work items this cpu completed
system.cpu1.kern.inst.arm                           0                       # number of arm instructions executed
system.cpu1.kern.inst.quiesce                       0                       # number of quiesce instructions executed
system.cpu1.committedInsts                  717286289                       # Number of instructions committed
system.cpu1.committedOps                   1064691232                       # Number of ops (including micro ops) committed
system.cpu1.num_int_alu_accesses            464197111                       # Number of integer alu accesses
system.cpu1.num_fp_alu_accesses             708837958                       # Number of float alu accesses
system.cpu1.num_func_calls                     909014                       # number of times a function call or return occured
system.cpu1.num_conditional_control_insts     10850126                       # number of instructions that are conditional controls
system.cpu1.num_int_insts                   464197111                       # number of integer instructions
system.cpu1.num_fp_insts                    708837958                       # number of float instructions
system.cpu1.num_int_register_reads          972500404                       # number of times the integer registers were read
system.cpu1.num_int_register_writes         344021166                       # number of times the integer registers were written
system.cpu1.num_fp_register_reads          1593836506                       # number of times the floating registers were read
system.cpu1.num_fp_register_writes          654311894                       # number of times the floating registers were written
system.cpu1.num_cc_register_reads           111774228                       # number of times the CC registers were read
system.cpu1.num_cc_register_writes          201713876                       # number of times the CC registers were written
system.cpu1.num_mem_refs                    129427761                       # number of memory refs
system.cpu1.num_load_insts                   75491371                       # Number of load instructions
system.cpu1.num_store_insts                  53936390                       # Number of store instructions
system.cpu1.num_idle_cycles              13080243.510626                       # Number of idle cycles
system.cpu1.num_busy_cycles              4387732641.489374                       # Number of busy cycles
system.cpu1.not_idle_fraction                0.997028                       # Percentage of non-idle cycles
system.cpu1.idle_fraction                    0.002972                       # Percentage of idle cycles
system.cpu1.Branches                         12052597                       # Number of branches fetched
system.cpu1.op_class::No_OpClass               315458      0.03%      0.03% # Class of executed instruction
system.cpu1.op_class::IntAlu                431555247     40.53%     40.56% # Class of executed instruction
system.cpu1.op_class::IntMult                   90469      0.01%     40.57% # Class of executed instruction
system.cpu1.op_class::IntDiv                     1934      0.00%     40.57% # Class of executed instruction
system.cpu1.op_class::FloatAdd              503316886     47.27%     87.84% # Class of executed instruction
system.cpu1.op_class::FloatCmp                      0      0.00%     87.84% # Class of executed instruction
system.cpu1.op_class::FloatCvt                      0      0.00%     87.84% # Class of executed instruction
system.cpu1.op_class::FloatMult                     0      0.00%     87.84% # Class of executed instruction
system.cpu1.op_class::FloatDiv                      0      0.00%     87.84% # Class of executed instruction
system.cpu1.op_class::FloatSqrt                     0      0.00%     87.84% # Class of executed instruction
system.cpu1.op_class::SimdAdd                       0      0.00%     87.84% # Class of executed instruction
system.cpu1.op_class::SimdAddAcc                    0      0.00%     87.84% # Class of executed instruction
system.cpu1.op_class::SimdAlu                       0      0.00%     87.84% # Class of executed instruction
system.cpu1.op_class::SimdCmp                       0      0.00%     87.84% # Class of executed instruction
system.cpu1.op_class::SimdCvt                       0      0.00%     87.84% # Class of executed instruction
system.cpu1.op_class::SimdMisc                      0      0.00%     87.84% # Class of executed instruction
system.cpu1.op_class::SimdMult                      0      0.00%     87.84% # Class of executed instruction
system.cpu1.op_class::SimdMultAcc                   0      0.00%     87.84% # Class of executed instruction
system.cpu1.op_class::SimdShift                     0      0.00%     87.84% # Class of executed instruction
system.cpu1.op_class::SimdShiftAcc                  0      0.00%     87.84% # Class of executed instruction
system.cpu1.op_class::SimdSqrt                      0      0.00%     87.84% # Class of executed instruction
system.cpu1.op_class::SimdFloatAdd                  0      0.00%     87.84% # Class of executed instruction
system.cpu1.op_class::SimdFloatAlu                  0      0.00%     87.84% # Class of executed instruction
system.cpu1.op_class::SimdFloatCmp                  0      0.00%     87.84% # Class of executed instruction
system.cpu1.op_class::SimdFloatCvt                  0      0.00%     87.84% # Class of executed instruction
system.cpu1.op_class::SimdFloatDiv                  0      0.00%     87.84% # Class of executed instruction
system.cpu1.op_class::SimdFloatMisc                 0      0.00%     87.84% # Class of executed instruction
system.cpu1.op_class::SimdFloatMult                 0      0.00%     87.84% # Class of executed instruction
system.cpu1.op_class::SimdFloatMultAcc              0      0.00%     87.84% # Class of executed instruction
system.cpu1.op_class::SimdFloatSqrt                 0      0.00%     87.84% # Class of executed instruction
system.cpu1.op_class::MemRead                75491371      7.09%     94.93% # Class of executed instruction
system.cpu1.op_class::MemWrite               53936390      5.07%    100.00% # Class of executed instruction
system.cpu1.op_class::IprAccess                     0      0.00%    100.00% # Class of executed instruction
system.cpu1.op_class::InstPrefetch                  0      0.00%    100.00% # Class of executed instruction
system.cpu1.op_class::total                1064707755                       # Class of executed instruction
system.cpu2.apic_clk_domain.clock                8000                       # Clock period in ticks
system.cpu2.numCycles                      4398970393                       # number of cpu cycles simulated
system.cpu2.numWorkItemsStarted                     0                       # number of work items this cpu started
system.cpu2.numWorkItemsCompleted                   0                       # number of work items this cpu completed
system.cpu2.kern.inst.arm                           0                       # number of arm instructions executed
system.cpu2.kern.inst.quiesce                       0                       # number of quiesce instructions executed
system.cpu2.committedInsts                    1528652                       # Number of instructions committed
system.cpu2.committedOps                      3308742                       # Number of ops (including micro ops) committed
system.cpu2.num_int_alu_accesses              3235078                       # Number of integer alu accesses
system.cpu2.num_fp_alu_accesses                     0                       # Number of float alu accesses
system.cpu2.num_func_calls                      91172                       # number of times a function call or return occured
system.cpu2.num_conditional_control_insts       232754                       # number of instructions that are conditional controls
system.cpu2.num_int_insts                     3235078                       # number of integer instructions
system.cpu2.num_fp_insts                            0                       # number of float instructions
system.cpu2.num_int_register_reads            6574282                       # number of times the integer registers were read
system.cpu2.num_int_register_writes           2686984                       # number of times the integer registers were written
system.cpu2.num_fp_register_reads                   0                       # number of times the floating registers were read
system.cpu2.num_fp_register_writes                  0                       # number of times the floating registers were written
system.cpu2.num_cc_register_reads             1868401                       # number of times the CC registers were read
system.cpu2.num_cc_register_writes             976351                       # number of times the CC registers were written
system.cpu2.num_mem_refs                       786956                       # number of memory refs
system.cpu2.num_load_insts                     489552                       # Number of load instructions
system.cpu2.num_store_insts                    297404                       # Number of store instructions
system.cpu2.num_idle_cycles              4386575138.996840                       # Number of idle cycles
system.cpu2.num_busy_cycles              12395254.003160                       # Number of busy cycles
system.cpu2.not_idle_fraction                0.002818                       # Percentage of non-idle cycles
system.cpu2.idle_fraction                    0.997182                       # Percentage of idle cycles
system.cpu2.Branches                           353725                       # Number of branches fetched
system.cpu2.op_class::No_OpClass                63253      1.91%      1.91% # Class of executed instruction
system.cpu2.op_class::IntAlu                  2429372     73.42%     75.33% # Class of executed instruction
system.cpu2.op_class::IntMult                    6625      0.20%     75.53% # Class of executed instruction
system.cpu2.op_class::IntDiv                    22540      0.68%     76.22% # Class of executed instruction
system.cpu2.op_class::FloatAdd                      0      0.00%     76.22% # Class of executed instruction
system.cpu2.op_class::FloatCmp                      0      0.00%     76.22% # Class of executed instruction
system.cpu2.op_class::FloatCvt                      0      0.00%     76.22% # Class of executed instruction
system.cpu2.op_class::FloatMult                     0      0.00%     76.22% # Class of executed instruction
system.cpu2.op_class::FloatDiv                      0      0.00%     76.22% # Class of executed instruction
system.cpu2.op_class::FloatSqrt                     0      0.00%     76.22% # Class of executed instruction
system.cpu2.op_class::SimdAdd                       0      0.00%     76.22% # Class of executed instruction
system.cpu2.op_class::SimdAddAcc                    0      0.00%     76.22% # Class of executed instruction
system.cpu2.op_class::SimdAlu                       0      0.00%     76.22% # Class of executed instruction
system.cpu2.op_class::SimdCmp                       0      0.00%     76.22% # Class of executed instruction
system.cpu2.op_class::SimdCvt                       0      0.00%     76.22% # Class of executed instruction
system.cpu2.op_class::SimdMisc                      0      0.00%     76.22% # Class of executed instruction
system.cpu2.op_class::SimdMult                      0      0.00%     76.22% # Class of executed instruction
system.cpu2.op_class::SimdMultAcc                   0      0.00%     76.22% # Class of executed instruction
system.cpu2.op_class::SimdShift                     0      0.00%     76.22% # Class of executed instruction
system.cpu2.op_class::SimdShiftAcc                  0      0.00%     76.22% # Class of executed instruction
system.cpu2.op_class::SimdSqrt                      0      0.00%     76.22% # Class of executed instruction
system.cpu2.op_class::SimdFloatAdd                  0      0.00%     76.22% # Class of executed instruction
system.cpu2.op_class::SimdFloatAlu                  0      0.00%     76.22% # Class of executed instruction
system.cpu2.op_class::SimdFloatCmp                  0      0.00%     76.22% # Class of executed instruction
system.cpu2.op_class::SimdFloatCvt                  0      0.00%     76.22% # Class of executed instruction
system.cpu2.op_class::SimdFloatDiv                  0      0.00%     76.22% # Class of executed instruction
system.cpu2.op_class::SimdFloatMisc                 0      0.00%     76.22% # Class of executed instruction
system.cpu2.op_class::SimdFloatMult                 0      0.00%     76.22% # Class of executed instruction
system.cpu2.op_class::SimdFloatMultAcc              0      0.00%     76.22% # Class of executed instruction
system.cpu2.op_class::SimdFloatSqrt                 0      0.00%     76.22% # Class of executed instruction
system.cpu2.op_class::MemRead                  489552     14.80%     91.01% # Class of executed instruction
system.cpu2.op_class::MemWrite                 297404      8.99%    100.00% # Class of executed instruction
system.cpu2.op_class::IprAccess                     0      0.00%    100.00% # Class of executed instruction
system.cpu2.op_class::InstPrefetch                  0      0.00%    100.00% # Class of executed instruction
system.cpu2.op_class::total                   3308746                       # Class of executed instruction
system.cpu3.apic_clk_domain.clock                8000                       # Clock period in ticks
system.cpu3.numCycles                      4396280662                       # number of cpu cycles simulated
system.cpu3.numWorkItemsStarted                     0                       # number of work items this cpu started
system.cpu3.numWorkItemsCompleted                   0                       # number of work items this cpu completed
system.cpu3.kern.inst.arm                           0                       # number of arm instructions executed
system.cpu3.kern.inst.quiesce                       0                       # number of quiesce instructions executed
system.cpu3.committedInsts                    4090859                       # Number of instructions committed
system.cpu3.committedOps                      8235255                       # Number of ops (including micro ops) committed
system.cpu3.num_int_alu_accesses              8084154                       # Number of integer alu accesses
system.cpu3.num_fp_alu_accesses                  1778                       # Number of float alu accesses
system.cpu3.num_func_calls                     214912                       # number of times a function call or return occured
system.cpu3.num_conditional_control_insts       686333                       # number of instructions that are conditional controls
system.cpu3.num_int_insts                     8084154                       # number of integer instructions
system.cpu3.num_fp_insts                         1778                       # number of float instructions
system.cpu3.num_int_register_reads           16109072                       # number of times the integer registers were read
system.cpu3.num_int_register_writes           6590721                       # number of times the integer registers were written
system.cpu3.num_fp_register_reads                2988                       # number of times the floating registers were read
system.cpu3.num_fp_register_writes               1416                       # number of times the floating registers were written
system.cpu3.num_cc_register_reads             5173985                       # number of times the CC registers were read
system.cpu3.num_cc_register_writes            2778493                       # number of times the CC registers were written
system.cpu3.num_mem_refs                      1866982                       # number of memory refs
system.cpu3.num_load_insts                    1207841                       # Number of load instructions
system.cpu3.num_store_insts                    659141                       # Number of store instructions
system.cpu3.num_idle_cycles              4373624340.402738                       # Number of idle cycles
system.cpu3.num_busy_cycles              22656321.597262                       # Number of busy cycles
system.cpu3.not_idle_fraction                0.005154                       # Percentage of non-idle cycles
system.cpu3.idle_fraction                    0.994846                       # Percentage of idle cycles
system.cpu3.Branches                           942292                       # Number of branches fetched
system.cpu3.op_class::No_OpClass                67530      0.82%      0.82% # Class of executed instruction
system.cpu3.op_class::IntAlu                  6268822     76.12%     76.94% # Class of executed instruction
system.cpu3.op_class::IntMult                    7670      0.09%     77.03% # Class of executed instruction
system.cpu3.op_class::IntDiv                    22997      0.28%     77.31% # Class of executed instruction
system.cpu3.op_class::FloatAdd                   1344      0.02%     77.33% # Class of executed instruction
system.cpu3.op_class::FloatCmp                      0      0.00%     77.33% # Class of executed instruction
system.cpu3.op_class::FloatCvt                      0      0.00%     77.33% # Class of executed instruction
system.cpu3.op_class::FloatMult                     0      0.00%     77.33% # Class of executed instruction
system.cpu3.op_class::FloatDiv                      0      0.00%     77.33% # Class of executed instruction
system.cpu3.op_class::FloatSqrt                     0      0.00%     77.33% # Class of executed instruction
system.cpu3.op_class::SimdAdd                       0      0.00%     77.33% # Class of executed instruction
system.cpu3.op_class::SimdAddAcc                    0      0.00%     77.33% # Class of executed instruction
system.cpu3.op_class::SimdAlu                       0      0.00%     77.33% # Class of executed instruction
system.cpu3.op_class::SimdCmp                       0      0.00%     77.33% # Class of executed instruction
system.cpu3.op_class::SimdCvt                       0      0.00%     77.33% # Class of executed instruction
system.cpu3.op_class::SimdMisc                      0      0.00%     77.33% # Class of executed instruction
system.cpu3.op_class::SimdMult                      0      0.00%     77.33% # Class of executed instruction
system.cpu3.op_class::SimdMultAcc                   0      0.00%     77.33% # Class of executed instruction
system.cpu3.op_class::SimdShift                     0      0.00%     77.33% # Class of executed instruction
system.cpu3.op_class::SimdShiftAcc                  0      0.00%     77.33% # Class of executed instruction
system.cpu3.op_class::SimdSqrt                      0      0.00%     77.33% # Class of executed instruction
system.cpu3.op_class::SimdFloatAdd                  0      0.00%     77.33% # Class of executed instruction
system.cpu3.op_class::SimdFloatAlu                  0      0.00%     77.33% # Class of executed instruction
system.cpu3.op_class::SimdFloatCmp                  0      0.00%     77.33% # Class of executed instruction
system.cpu3.op_class::SimdFloatCvt                  0      0.00%     77.33% # Class of executed instruction
system.cpu3.op_class::SimdFloatDiv                  0      0.00%     77.33% # Class of executed instruction
system.cpu3.op_class::SimdFloatMisc                 0      0.00%     77.33% # Class of executed instruction
system.cpu3.op_class::SimdFloatMult                 0      0.00%     77.33% # Class of executed instruction
system.cpu3.op_class::SimdFloatMultAcc              0      0.00%     77.33% # Class of executed instruction
system.cpu3.op_class::SimdFloatSqrt                 0      0.00%     77.33% # Class of executed instruction
system.cpu3.op_class::MemRead                 1207841     14.67%     92.00% # Class of executed instruction
system.cpu3.op_class::MemWrite                 659141      8.00%    100.00% # Class of executed instruction
system.cpu3.op_class::IprAccess                     0      0.00%    100.00% # Class of executed instruction
system.cpu3.op_class::InstPrefetch                  0      0.00%    100.00% # Class of executed instruction
system.cpu3.op_class::total                   8235345                       # Class of executed instruction
system.iobus.trans_dist::ReadReq                   82                       # Transaction distribution
system.iobus.trans_dist::ReadResp                  82                       # Transaction distribution
system.iobus.trans_dist::WriteReq                2260                       # Transaction distribution
system.iobus.trans_dist::WriteResp               2260                       # Transaction distribution
system.iobus.trans_dist::MessageReq                12                       # Transaction distribution
system.iobus.trans_dist::MessageResp               12                       # Transaction distribution
system.iobus.pkt_count_system.pc.south_bridge.io_apic.int_master::system.ruby.l1_cntrl0.sequencer.pio-slave-port            2                       # Packet count per connected master and slave (bytes)
system.iobus.pkt_count_system.pc.south_bridge.io_apic.int_master::system.ruby.l1_cntrl1.sequencer.pio-slave-port            4                       # Packet count per connected master and slave (bytes)
system.iobus.pkt_count_system.pc.south_bridge.io_apic.int_master::system.ruby.l1_cntrl2.sequencer.pio-slave-port            2                       # Packet count per connected master and slave (bytes)
system.iobus.pkt_count_system.pc.south_bridge.io_apic.int_master::system.ruby.l1_cntrl3.sequencer.pio-slave-port            2                       # Packet count per connected master and slave (bytes)
system.iobus.pkt_count_system.pc.south_bridge.io_apic.int_master::total           10                       # Packet count per connected master and slave (bytes)
system.iobus.pkt_count_system.ruby.l1_cntrl0.sequencer.mem-master-port::system.pc.south_bridge.io_apic.pio            8                       # Packet count per connected master and slave (bytes)
system.iobus.pkt_count_system.ruby.l1_cntrl0.sequencer.mem-master-port::system.ruby.l1_cntrl0.sequencer.pio-slave-port         1112                       # Packet count per connected master and slave (bytes)
system.iobus.pkt_count_system.ruby.l1_cntrl0.sequencer.mem-master-port::system.ruby.l1_cntrl1.sequencer.pio-slave-port            2                       # Packet count per connected master and slave (bytes)
system.iobus.pkt_count_system.ruby.l1_cntrl0.sequencer.mem-master-port::total         1122                       # Packet count per connected master and slave (bytes)
system.iobus.pkt_count_system.ruby.l1_cntrl1.sequencer.mem-master-port::system.pc.south_bridge.io_apic.pio           14                       # Packet count per connected master and slave (bytes)
system.iobus.pkt_count_system.ruby.l1_cntrl1.sequencer.mem-master-port::system.pc.com_1.pio          162                       # Packet count per connected master and slave (bytes)
system.iobus.pkt_count_system.ruby.l1_cntrl1.sequencer.mem-master-port::system.ruby.l1_cntrl0.sequencer.pio-slave-port            2                       # Packet count per connected master and slave (bytes)
system.iobus.pkt_count_system.ruby.l1_cntrl1.sequencer.mem-master-port::system.ruby.l1_cntrl1.sequencer.pio-slave-port         1120                       # Packet count per connected master and slave (bytes)
system.iobus.pkt_count_system.ruby.l1_cntrl1.sequencer.mem-master-port::system.ruby.l1_cntrl2.sequencer.pio-slave-port            2                       # Packet count per connected master and slave (bytes)
system.iobus.pkt_count_system.ruby.l1_cntrl1.sequencer.mem-master-port::total         1300                       # Packet count per connected master and slave (bytes)
system.iobus.pkt_count_system.ruby.l1_cntrl2.sequencer.mem-master-port::system.pc.south_bridge.io_apic.pio            8                       # Packet count per connected master and slave (bytes)
system.iobus.pkt_count_system.ruby.l1_cntrl2.sequencer.mem-master-port::system.ruby.l1_cntrl2.sequencer.pio-slave-port         1112                       # Packet count per connected master and slave (bytes)
system.iobus.pkt_count_system.ruby.l1_cntrl2.sequencer.mem-master-port::system.ruby.l1_cntrl3.sequencer.pio-slave-port            2                       # Packet count per connected master and slave (bytes)
system.iobus.pkt_count_system.ruby.l1_cntrl2.sequencer.mem-master-port::total         1122                       # Packet count per connected master and slave (bytes)
system.iobus.pkt_count_system.ruby.l1_cntrl3.sequencer.mem-master-port::system.pc.south_bridge.io_apic.pio            6                       # Packet count per connected master and slave (bytes)
system.iobus.pkt_count_system.ruby.l1_cntrl3.sequencer.mem-master-port::system.pc.com_1.pio           22                       # Packet count per connected master and slave (bytes)
system.iobus.pkt_count_system.ruby.l1_cntrl3.sequencer.mem-master-port::system.ruby.l1_cntrl0.sequencer.pio-slave-port            2                       # Packet count per connected master and slave (bytes)
system.iobus.pkt_count_system.ruby.l1_cntrl3.sequencer.mem-master-port::system.ruby.l1_cntrl1.sequencer.pio-slave-port            2                       # Packet count per connected master and slave (bytes)
system.iobus.pkt_count_system.ruby.l1_cntrl3.sequencer.mem-master-port::system.ruby.l1_cntrl2.sequencer.pio-slave-port            2                       # Packet count per connected master and slave (bytes)
system.iobus.pkt_count_system.ruby.l1_cntrl3.sequencer.mem-master-port::system.ruby.l1_cntrl3.sequencer.pio-slave-port         1120                       # Packet count per connected master and slave (bytes)
system.iobus.pkt_count_system.ruby.l1_cntrl3.sequencer.mem-master-port::total         1154                       # Packet count per connected master and slave (bytes)
system.iobus.pkt_count::total                    4708                       # Packet count per connected master and slave (bytes)
system.iobus.pkt_size_system.pc.south_bridge.io_apic.int_master::system.ruby.l1_cntrl0.sequencer.pio-slave-port            4                       # Cumulative packet size per connected master and slave (bytes)
system.iobus.pkt_size_system.pc.south_bridge.io_apic.int_master::system.ruby.l1_cntrl1.sequencer.pio-slave-port            8                       # Cumulative packet size per connected master and slave (bytes)
system.iobus.pkt_size_system.pc.south_bridge.io_apic.int_master::system.ruby.l1_cntrl2.sequencer.pio-slave-port            4                       # Cumulative packet size per connected master and slave (bytes)
system.iobus.pkt_size_system.pc.south_bridge.io_apic.int_master::system.ruby.l1_cntrl3.sequencer.pio-slave-port            4                       # Cumulative packet size per connected master and slave (bytes)
system.iobus.pkt_size_system.pc.south_bridge.io_apic.int_master::total           20                       # Cumulative packet size per connected master and slave (bytes)
system.iobus.pkt_size_system.ruby.l1_cntrl0.sequencer.mem-master-port::system.pc.south_bridge.io_apic.pio           16                       # Cumulative packet size per connected master and slave (bytes)
system.iobus.pkt_size_system.ruby.l1_cntrl0.sequencer.mem-master-port::system.ruby.l1_cntrl0.sequencer.pio-slave-port         2224                       # Cumulative packet size per connected master and slave (bytes)
system.iobus.pkt_size_system.ruby.l1_cntrl0.sequencer.mem-master-port::system.ruby.l1_cntrl1.sequencer.pio-slave-port            4                       # Cumulative packet size per connected master and slave (bytes)
system.iobus.pkt_size_system.ruby.l1_cntrl0.sequencer.mem-master-port::total         2244                       # Cumulative packet size per connected master and slave (bytes)
system.iobus.pkt_size_system.ruby.l1_cntrl1.sequencer.mem-master-port::system.pc.south_bridge.io_apic.pio           28                       # Cumulative packet size per connected master and slave (bytes)
system.iobus.pkt_size_system.ruby.l1_cntrl1.sequencer.mem-master-port::system.pc.com_1.pio           81                       # Cumulative packet size per connected master and slave (bytes)
system.iobus.pkt_size_system.ruby.l1_cntrl1.sequencer.mem-master-port::system.ruby.l1_cntrl0.sequencer.pio-slave-port            4                       # Cumulative packet size per connected master and slave (bytes)
system.iobus.pkt_size_system.ruby.l1_cntrl1.sequencer.mem-master-port::system.ruby.l1_cntrl1.sequencer.pio-slave-port         2240                       # Cumulative packet size per connected master and slave (bytes)
system.iobus.pkt_size_system.ruby.l1_cntrl1.sequencer.mem-master-port::system.ruby.l1_cntrl2.sequencer.pio-slave-port            4                       # Cumulative packet size per connected master and slave (bytes)
system.iobus.pkt_size_system.ruby.l1_cntrl1.sequencer.mem-master-port::total         2357                       # Cumulative packet size per connected master and slave (bytes)
system.iobus.pkt_size_system.ruby.l1_cntrl2.sequencer.mem-master-port::system.pc.south_bridge.io_apic.pio           16                       # Cumulative packet size per connected master and slave (bytes)
system.iobus.pkt_size_system.ruby.l1_cntrl2.sequencer.mem-master-port::system.ruby.l1_cntrl2.sequencer.pio-slave-port         2224                       # Cumulative packet size per connected master and slave (bytes)
system.iobus.pkt_size_system.ruby.l1_cntrl2.sequencer.mem-master-port::system.ruby.l1_cntrl3.sequencer.pio-slave-port            4                       # Cumulative packet size per connected master and slave (bytes)
system.iobus.pkt_size_system.ruby.l1_cntrl2.sequencer.mem-master-port::total         2244                       # Cumulative packet size per connected master and slave (bytes)
system.iobus.pkt_size_system.ruby.l1_cntrl3.sequencer.mem-master-port::system.pc.south_bridge.io_apic.pio           12                       # Cumulative packet size per connected master and slave (bytes)
system.iobus.pkt_size_system.ruby.l1_cntrl3.sequencer.mem-master-port::system.pc.com_1.pio           11                       # Cumulative packet size per connected master and slave (bytes)
system.iobus.pkt_size_system.ruby.l1_cntrl3.sequencer.mem-master-port::system.ruby.l1_cntrl0.sequencer.pio-slave-port            4                       # Cumulative packet size per connected master and slave (bytes)
system.iobus.pkt_size_system.ruby.l1_cntrl3.sequencer.mem-master-port::system.ruby.l1_cntrl1.sequencer.pio-slave-port            4                       # Cumulative packet size per connected master and slave (bytes)
system.iobus.pkt_size_system.ruby.l1_cntrl3.sequencer.mem-master-port::system.ruby.l1_cntrl2.sequencer.pio-slave-port            4                       # Cumulative packet size per connected master and slave (bytes)
system.iobus.pkt_size_system.ruby.l1_cntrl3.sequencer.mem-master-port::system.ruby.l1_cntrl3.sequencer.pio-slave-port         2240                       # Cumulative packet size per connected master and slave (bytes)
system.iobus.pkt_size_system.ruby.l1_cntrl3.sequencer.mem-master-port::total         2275                       # Cumulative packet size per connected master and slave (bytes)
system.iobus.pkt_size::total                     9140                       # Cumulative packet size per connected master and slave (bytes)
system.iobus.reqLayer8.occupancy                31996                       # Layer occupancy (ticks)
system.iobus.reqLayer8.utilization                0.0                       # Layer utilization (%)
system.iobus.reqLayer12.occupancy              120500                       # Layer occupancy (ticks)
system.iobus.reqLayer12.utilization               0.0                       # Layer utilization (%)
system.iobus.reqLayer17.occupancy             1270999                       # Layer occupancy (ticks)
system.iobus.reqLayer17.utilization               0.0                       # Layer utilization (%)
system.iobus.reqLayer18.occupancy             1425169                       # Layer occupancy (ticks)
system.iobus.reqLayer18.utilization               0.0                       # Layer utilization (%)
system.iobus.reqLayer19.occupancy             1270500                       # Layer occupancy (ticks)
system.iobus.reqLayer19.utilization               0.0                       # Layer utilization (%)
system.iobus.reqLayer20.occupancy             1273498                       # Layer occupancy (ticks)
system.iobus.reqLayer20.utilization               0.0                       # Layer utilization (%)
system.iobus.respLayer0.occupancy                6000                       # Layer occupancy (ticks)
system.iobus.respLayer0.utilization               0.0                       # Layer utilization (%)
system.iobus.respLayer2.occupancy              842000                       # Layer occupancy (ticks)
system.iobus.respLayer2.utilization               0.0                       # Layer utilization (%)
system.iobus.respLayer4.occupancy              994000                       # Layer occupancy (ticks)
system.iobus.respLayer4.utilization               0.0                       # Layer utilization (%)
system.iobus.respLayer6.occupancy              842000                       # Layer occupancy (ticks)
system.iobus.respLayer6.utilization               0.0                       # Layer utilization (%)
system.iobus.respLayer8.occupancy              869000                       # Layer occupancy (ticks)
system.iobus.respLayer8.utilization               0.0                       # Layer utilization (%)
system.pc.south_bridge.ide.disks.dma_read_full_pages            0                       # Number of full page size DMA reads (not PRD).
system.pc.south_bridge.ide.disks.dma_read_bytes            0                       # Number of bytes transfered via DMA reads (not PRD).
system.pc.south_bridge.ide.disks.dma_read_txs            0                       # Number of DMA read transactions (not PRD).
system.pc.south_bridge.ide.disks.dma_write_full_pages            0                       # Number of full page size DMA writes.
system.pc.south_bridge.ide.disks.dma_write_bytes            0                       # Number of bytes transfered via DMA writes.
system.pc.south_bridge.ide.disks.dma_write_txs            0                       # Number of DMA write transactions.
system.ruby.clk_domain.clock                      500                       # Clock period in ticks
system.ruby.delayHist::bucket_size                  2                       # delay histogram for all message
system.ruby.delayHist::max_bucket                  19                       # delay histogram for all message
system.ruby.delayHist::samples              164502740                       # delay histogram for all message
system.ruby.delayHist::mean                  0.375752                       # delay histogram for all message
system.ruby.delayHist::stdev                 1.166701                       # delay histogram for all message
system.ruby.delayHist                    |   149017211     90.59%     90.59% |       78572      0.05%     90.63% |    15397450      9.36%     99.99% |        7159      0.00%    100.00% |         597      0.00%    100.00% |        1737      0.00%    100.00% |           3      0.00%    100.00% |           9      0.00%    100.00% |           2      0.00%    100.00% |           0      0.00%    100.00% # delay histogram for all message
system.ruby.delayHist::total                164502740                       # delay histogram for all message
system.ruby.outstanding_req_hist_seqr::bucket_size            1                      
system.ruby.outstanding_req_hist_seqr::max_bucket            9                      
system.ruby.outstanding_req_hist_seqr::samples   1227777186                      
system.ruby.outstanding_req_hist_seqr::mean     1.000000                      
system.ruby.outstanding_req_hist_seqr::gmean     1.000000                      
system.ruby.outstanding_req_hist_seqr::stdev     0.000539                      
system.ruby.outstanding_req_hist_seqr    |           0      0.00%      0.00% |  1227776829    100.00%    100.00% |         357      0.00%    100.00% |           0      0.00%    100.00% |           0      0.00%    100.00% |           0      0.00%    100.00% |           0      0.00%    100.00% |           0      0.00%    100.00% |           0      0.00%    100.00% |           0      0.00%    100.00%
system.ruby.outstanding_req_hist_seqr::total   1227777186                      
system.ruby.latency_hist_seqr::bucket_size          512                      
system.ruby.latency_hist_seqr::max_bucket         5119                      
system.ruby.latency_hist_seqr::samples     1227777186                      
system.ruby.latency_hist_seqr::mean          2.610774                      
system.ruby.latency_hist_seqr::gmean         1.089679                      
system.ruby.latency_hist_seqr::stdev        17.422516                      
system.ruby.latency_hist_seqr            |  1227498590     99.98%     99.98% |      248513      0.02%    100.00% |       25926      0.00%    100.00% |        3850      0.00%    100.00% |         302      0.00%    100.00% |           5      0.00%    100.00% |           0      0.00%    100.00% |           0      0.00%    100.00% |           0      0.00%    100.00% |           0      0.00%    100.00%
system.ruby.latency_hist_seqr::total       1227777186                      
system.ruby.hit_latency_hist_seqr::bucket_size            1                      
system.ruby.hit_latency_hist_seqr::max_bucket            9                      
system.ruby.hit_latency_hist_seqr::samples   1199477371                      
system.ruby.hit_latency_hist_seqr::mean             1                      
system.ruby.hit_latency_hist_seqr::gmean            1                      
system.ruby.hit_latency_hist_seqr        |           0      0.00%      0.00% |  1199477371    100.00%    100.00% |           0      0.00%    100.00% |           0      0.00%    100.00% |           0      0.00%    100.00% |           0      0.00%    100.00% |           0      0.00%    100.00% |           0      0.00%    100.00% |           0      0.00%    100.00% |           0      0.00%    100.00%
system.ruby.hit_latency_hist_seqr::total   1199477371                      
[...]
system.ruby.Directory_Controller.M_DRD.Data            2      0.00%      0.00%
system.ruby.Directory_Controller.M_DRDI.Memory_Ack            2      0.00%      0.00%
system.ruby.DMA_Controller.ReadRequest   |           2    100.00%    100.00% |           0      0.00%    100.00%
system.ruby.DMA_Controller.ReadRequest::total            2                      
system.ruby.DMA_Controller.WriteRequest  |         256    100.00%    100.00% |           0      0.00%    100.00%
system.ruby.DMA_Controller.WriteRequest::total          256                      
system.ruby.DMA_Controller.Data          |           2    100.00%    100.00% |           0      0.00%    100.00%
system.ruby.DMA_Controller.Data::total              2                      
system.ruby.DMA_Controller.Ack           |         256    100.00%    100.00% |           0      0.00%    100.00%
system.ruby.DMA_Controller.Ack::total             256                      
system.ruby.DMA_Controller.READY.ReadRequest |           2    100.00%    100.00% |           0      0.00%    100.00%
system.ruby.DMA_Controller.READY.ReadRequest::total            2                      
system.ruby.DMA_Controller.READY.WriteRequest |         256    100.00%    100.00% |           0      0.00%    100.00%
system.ruby.DMA_Controller.READY.WriteRequest::total          256                      
system.ruby.DMA_Controller.BUSY_RD.Data  |           2    100.00%    100.00% |           0      0.00%    100.00%
system.ruby.DMA_Controller.BUSY_RD.Data::total            2                      
system.ruby.DMA_Controller.BUSY_WR.Ack   |         256    100.00%    100.00% |           0      0.00%    100.00%
system.ruby.DMA_Controller.BUSY_WR.Ack::total          256                      
system.ruby.L1Cache_Controller.Load      |      764349      0.83%      0.83% |    87348195     94.59%     95.42% |     1030937      1.12%     96.54% |     3197590      3.46%    100.00%
system.ruby.L1Cache_Controller.Load::total     92341071                      
system.ruby.L1Cache_Controller.Ifetch    |     3535242      0.33%      0.33% |  1051701300     97.44%     97.76% |     5040917      0.47%     98.23% |    19103436      1.77%    100.00%
system.ruby.L1Cache_Controller.Ifetch::total   1079380895                      
system.ruby.L1Cache_Controller.Store     |      591742      0.71%      0.71% |    80080279     95.43%     96.13% |      801315      0.95%     97.09% |     2444935      2.91%    100.00%
system.ruby.L1Cache_Controller.Store::total     83918271                      
system.ruby.L1Cache_Controller.Inv       |       77490     26.62%     26.62% |       63900     21.95%     48.58% |       70497     24.22%     72.80% |       79168     27.20%    100.00%
system.ruby.L1Cache_Controller.Inv::total       291055                      
system.ruby.L1Cache_Controller.L1_Replacement |       91478      0.32%      0.32% |    27952816     98.20%     98.52% |      106524      0.37%     98.90% |      314280      1.10%    100.00%
system.ruby.L1Cache_Controller.L1_Replacement::total     28465098                      
system.ruby.L1Cache_Controller.Fwd_GETX  |        2612     35.18%     35.18% |        1016     13.69%     48.87% |        2182     29.39%     78.26% |        1614     21.74%    100.00%
system.ruby.L1Cache_Controller.Fwd_GETX::total         7424                      
system.ruby.L1Cache_Controller.Fwd_GETS  |        8475     37.14%     37.14% |        3194     14.00%     51.14% |        7446     32.63%     83.78% |        3702     16.22%    100.00%
system.ruby.L1Cache_Controller.Fwd_GETS::total        22817                      
system.ruby.L1Cache_Controller.Data      |         525     13.23%     13.23% |        1194     30.09%     43.32% |        1547     38.99%     82.31% |         702     17.69%    100.00%
system.ruby.L1Cache_Controller.Data::total         3968                      
system.ruby.L1Cache_Controller.Data_Exclusive |       28085      0.17%      0.17% |    16556170     98.55%     98.72% |       35083      0.21%     98.93% |      180147      1.07%    100.00%
system.ruby.L1Cache_Controller.Data_Exclusive::total     16799485                      
system.ruby.L1Cache_Controller.DataS_fromL1 |        7057     30.93%     30.93% |        2862     12.54%     43.47% |        4028     17.65%     61.13% |        8870     38.87%    100.00%
system.ruby.L1Cache_Controller.DataS_fromL1::total        22817                      
system.ruby.L1Cache_Controller.Data_all_Acks |      122474      1.03%      1.03% |    11433746     96.36%     97.39% |      126202      1.06%     98.46% |      182975      1.54%    100.00%
system.ruby.L1Cache_Controller.Data_all_Acks::total     11865397                      
system.ruby.L1Cache_Controller.Ack       |       11979     46.86%     46.86% |        5339     20.89%     67.75% |        4348     17.01%     84.76% |        3896     15.24%    100.00%
system.ruby.L1Cache_Controller.Ack::total        25562                      
system.ruby.L1Cache_Controller.Ack_all   |        5968     35.27%     35.27% |        3844     22.72%     57.98% |        3800     22.46%     80.44% |        3310     19.56%    100.00%
system.ruby.L1Cache_Controller.Ack_all::total        16922                      
system.ruby.L1Cache_Controller.WB_Ack    |       28774      0.10%      0.10% |    27846404     98.85%     98.96% |       42094      0.15%     99.10% |      252129      0.90%    100.00%
system.ruby.L1Cache_Controller.WB_Ack::total     28169401                      
system.ruby.L1Cache_Controller.NP.Load   |       29257      0.17%      0.17% |    16577080     98.52%     98.70% |       33856      0.20%     98.90% |      185067      1.10%    100.00%
system.ruby.L1Cache_Controller.NP.Load::total     16825260                      
system.ruby.L1Cache_Controller.NP.Ifetch |       47116     21.20%     21.20% |       80846     36.37%     57.57% |       48315     21.74%     79.31% |       45992     20.69%    100.00%
system.ruby.L1Cache_Controller.NP.Ifetch::total       222269                      
system.ruby.L1Cache_Controller.NP.Store  |       16311      0.14%      0.14% |    11294891     98.91%     99.05% |       24908      0.22%     99.27% |       83224      0.73%    100.00%
system.ruby.L1Cache_Controller.NP.Store::total     11419334                      
system.ruby.L1Cache_Controller.NP.Inv    |        4820     12.80%     12.80% |       16419     43.60%     56.40% |        4447     11.81%     68.21% |       11972     31.79%    100.00%
system.ruby.L1Cache_Controller.NP.Inv::total        37658                      
system.ruby.L1Cache_Controller.I.Load    |       11879     28.14%     28.14% |        1722      4.08%     32.21% |       14824     35.11%     67.32% |       13796     32.68%    100.00%
system.ruby.L1Cache_Controller.I.Load::total        42221                      
system.ruby.L1Cache_Controller.I.Ifetch  |       42424     29.39%     29.39% |       32527     22.53%     51.92% |       34803     24.11%     76.02% |       34616     23.98%    100.00%
system.ruby.L1Cache_Controller.I.Ifetch::total       144370                      
system.ruby.L1Cache_Controller.I.Store   |       11154     29.19%     29.19% |        6906     18.07%     47.27% |       10150     26.56%     73.83% |        9999     26.17%    100.00%
system.ruby.L1Cache_Controller.I.Store::total        38209                      
system.ruby.L1Cache_Controller.I.L1_Replacement |        8952     25.73%     25.73% |        7419     21.33%     47.06% |        8996     25.86%     72.91% |        9423     27.09%    100.00%
system.ruby.L1Cache_Controller.I.L1_Replacement::total        34790                      
system.ruby.L1Cache_Controller.S.Load    |      131325     17.58%     17.58% |      132497     17.73%     35.31% |      168203     22.51%     57.83% |      315091     42.17%    100.00%
system.ruby.L1Cache_Controller.S.Load::total       747116                      
system.ruby.L1Cache_Controller.S.Ifetch  |     3445702      0.32%      0.32% |  1051587925     97.46%     97.78% |     4957799      0.46%     98.24% |    19022828      1.76%    100.00%
system.ruby.L1Cache_Controller.S.Ifetch::total   1079014254                      
system.ruby.L1Cache_Controller.S.Store   |        5443     42.00%     42.00% |        2650     20.45%     62.46% |        2257     17.42%     79.87% |        2608     20.13%    100.00%
system.ruby.L1Cache_Controller.S.Store::total        12958                      
system.ruby.L1Cache_Controller.S.Inv     |       51806     28.20%     28.20% |       37681     20.51%     48.71% |       46652     25.39%     74.10% |       47575     25.90%    100.00%
system.ruby.L1Cache_Controller.S.Inv::total       183714                      
system.ruby.L1Cache_Controller.S.L1_Replacement |       53752     20.60%     20.60% |       98993     37.94%     58.54% |       55434     21.25%     79.79% |       52728     20.21%    100.00%
system.ruby.L1Cache_Controller.S.L1_Replacement::total       260907                      
system.ruby.L1Cache_Controller.E.Load    |      128088      0.22%      0.22% |    58270397     98.65%     98.86% |      166182      0.28%     99.15% |      504921      0.85%    100.00%
system.ruby.L1Cache_Controller.E.Load::total     59069588                      
system.ruby.L1Cache_Controller.E.Store   |        5533      0.13%      0.13% |     4057991     97.58%     97.71% |        6485      0.16%     97.87% |       88609      2.13%    100.00%
system.ruby.L1Cache_Controller.E.Store::total      4158618                      
system.ruby.L1Cache_Controller.E.Inv     |        6658     31.39%     31.39% |        1534      7.23%     38.62% |        6220     29.32%     67.95% |        6799     32.05%    100.00%
system.ruby.L1Cache_Controller.E.Inv::total        21211                      
system.ruby.L1Cache_Controller.E.L1_Replacement |       10960      0.09%      0.09% |    12495283     99.13%     99.22% |       14840      0.12%     99.34% |       83728      0.66%    100.00%
system.ruby.L1Cache_Controller.E.L1_Replacement::total     12604811                      
system.ruby.L1Cache_Controller.E.Fwd_GETX |        1650     44.18%     44.18% |         100      2.68%     46.85% |        1574     42.14%     89.00% |         411     11.00%    100.00%
system.ruby.L1Cache_Controller.E.Fwd_GETX::total         3735                      
system.ruby.L1Cache_Controller.E.Fwd_GETS |        3478     32.10%     32.10% |         953      8.80%     40.90% |        5124     47.29%     88.19% |        1280     11.81%    100.00%
system.ruby.L1Cache_Controller.E.Fwd_GETS::total        10835                      
system.ruby.L1Cache_Controller.M.Load    |      463800      2.96%      2.96% |    12366499     78.98%     81.95% |      647872      4.14%     86.08% |     2178715     13.92%    100.00%
system.ruby.L1Cache_Controller.M.Load::total     15656886                      
system.ruby.L1Cache_Controller.M.Store   |      553301      0.81%      0.81% |    64717841     94.77%     95.58% |      757515      1.11%     96.69% |     2260495      3.31%    100.00%
system.ruby.L1Cache_Controller.M.Store::total     68289152                      
system.ruby.L1Cache_Controller.M.Inv     |       14206     29.31%     29.31% |        8266     17.05%     46.36% |       13174     27.18%     73.55% |       12822     26.45%    100.00%
system.ruby.L1Cache_Controller.M.Inv::total        48468                      
system.ruby.L1Cache_Controller.M.L1_Replacement |       17814      0.11%      0.11% |    15351121     98.63%     98.74% |       27254      0.18%     98.92% |      168401      1.08%    100.00%
system.ruby.L1Cache_Controller.M.L1_Replacement::total     15564590                      
system.ruby.L1Cache_Controller.M.Fwd_GETX |         962     26.08%     26.08% |         916     24.83%     50.91% |         608     16.48%     67.39% |        1203     32.61%    100.00%
system.ruby.L1Cache_Controller.M.Fwd_GETX::total         3689                      
system.ruby.L1Cache_Controller.M.Fwd_GETS |        4997     41.70%     41.70% |        2241     18.70%     60.41% |        2322     19.38%     79.79% |        2422     20.21%    100.00%
system.ruby.L1Cache_Controller.M.Fwd_GETS::total        11982                      
system.ruby.L1Cache_Controller.IS.Data_Exclusive |       28085      0.17%      0.17% |    16556170     98.55%     98.72% |       35083      0.21%     98.93% |      180147      1.07%    100.00%
system.ruby.L1Cache_Controller.IS.Data_Exclusive::total     16799485                      
system.ruby.L1Cache_Controller.IS.DataS_fromL1 |        7057     30.93%     30.93% |        2862     12.54%     43.47% |        4028     17.65%     61.13% |        8870     38.87%    100.00%
system.ruby.L1Cache_Controller.IS.DataS_fromL1::total        22817                      
system.ruby.L1Cache_Controller.IS.Data_all_Acks |       95534     23.20%     23.20% |      133143     32.33%     55.53% |       92687     22.51%     78.04% |       90454     21.96%    100.00%
system.ruby.L1Cache_Controller.IS.Data_all_Acks::total       411818                      
system.ruby.L1Cache_Controller.IM.Data   |         525     13.23%     13.23% |        1194     30.09%     43.32% |        1547     38.99%     82.31% |         702     17.69%    100.00%
system.ruby.L1Cache_Controller.IM.Data::total         3968                      
system.ruby.L1Cache_Controller.IM.Data_all_Acks |       26940      0.24%      0.24% |    11300603     98.66%     98.90% |       33515      0.29%     99.19% |       92521      0.81%    100.00%
system.ruby.L1Cache_Controller.IM.Data_all_Acks::total     11453579                      
system.ruby.L1Cache_Controller.SM.Inv    |           0      0.00%      0.00% |           0      0.00%      0.00% |           4    100.00%    100.00% |           0      0.00%    100.00%
system.ruby.L1Cache_Controller.SM.Inv::total            4                      
system.ruby.L1Cache_Controller.SM.Ack    |       11979     46.86%     46.86% |        5339     20.89%     67.75% |        4348     17.01%     84.76% |        3896     15.24%    100.00%
system.ruby.L1Cache_Controller.SM.Ack::total        25562                      
system.ruby.L1Cache_Controller.SM.Ack_all |        5968     35.27%     35.27% |        3844     22.72%     57.98% |        3800     22.46%     80.44% |        3310     19.56%    100.00%
system.ruby.L1Cache_Controller.SM.Ack_all::total        16922                      
system.ruby.L1Cache_Controller.M_I.Ifetch |           0      0.00%      0.00% |           2    100.00%    100.00% |           0      0.00%    100.00% |           0      0.00%    100.00%
system.ruby.L1Cache_Controller.M_I.Ifetch::total            2                      
system.ruby.L1Cache_Controller.M_I.WB_Ack |       28774      0.10%      0.10% |    27846404     98.85%     98.96% |       42094      0.15%     99.10% |      252129      0.90%    100.00%
system.ruby.L1Cache_Controller.M_I.WB_Ack::total     28169401                      
system.ruby.L2Cache_Controller.L1_GET_INSTR       366639      0.00%      0.00%
system.ruby.L2Cache_Controller.L1_GETS       16867749      0.00%      0.00%
system.ruby.L2Cache_Controller.L1_GETX       11457550      0.00%      0.00%
system.ruby.L2Cache_Controller.L1_UPGRADE        12958      0.00%      0.00%
system.ruby.L2Cache_Controller.L1_PUTX       28169401      0.00%      0.00%
system.ruby.L2Cache_Controller.L2_Replacement      5370260      0.00%      0.00%
system.ruby.L2Cache_Controller.L2_Replacement_clean      6474071      0.00%      0.00%
system.ruby.L2Cache_Controller.Mem_Data      11881772      0.00%      0.00%
system.ruby.L2Cache_Controller.Mem_Ack       11844333      0.00%      0.00%
system.ruby.L2Cache_Controller.WB_Data          60450      0.00%      0.00%
system.ruby.L2Cache_Controller.WB_Data_clean        10835      0.00%      0.00%
system.ruby.L2Cache_Controller.Ack             110902      0.00%      0.00%
system.ruby.L2Cache_Controller.Ack_all         102155      0.00%      0.00%
system.ruby.L2Cache_Controller.Unblock          22817      0.00%      0.00%
system.ruby.L2Cache_Controller.Exclusive_Unblock     28269986      0.00%      0.00%
system.ruby.L2Cache_Controller.MEM_Inv              4      0.00%      0.00%
system.ruby.L2Cache_Controller.NP.L1_GET_INSTR        79220      0.00%      0.00%
system.ruby.L2Cache_Controller.NP.L1_GETS      6436864      0.00%      0.00%
system.ruby.L2Cache_Controller.NP.L1_GETX      5365688      0.00%      0.00%
system.ruby.L2Cache_Controller.SS.L1_GET_INSTR       287390      0.00%      0.00%
system.ruby.L2Cache_Controller.SS.L1_GETS        45041      0.00%      0.00%
system.ruby.L2Cache_Controller.SS.L1_GETX         3968      0.00%      0.00%
system.ruby.L2Cache_Controller.SS.L1_UPGRADE        12954      0.00%      0.00%
system.ruby.L2Cache_Controller.SS.L2_Replacement         1378      0.00%      0.00%
system.ruby.L2Cache_Controller.SS.L2_Replacement_clean        79566      0.00%      0.00%
system.ruby.L2Cache_Controller.M.L1_GET_INSTR           29      0.00%      0.00%
system.ruby.L2Cache_Controller.M.L1_GETS     10362690      0.00%      0.00%
system.ruby.L2Cache_Controller.M.L1_GETX      6080467      0.00%      0.00%
system.ruby.L2Cache_Controller.M.L2_Replacement      5362127      0.00%      0.00%
system.ruby.L2Cache_Controller.M.L2_Replacement_clean      6331583      0.00%      0.00%
system.ruby.L2Cache_Controller.MT.L1_GETS        22817      0.00%      0.00%
system.ruby.L2Cache_Controller.MT.L1_GETX         7424      0.00%      0.00%
system.ruby.L2Cache_Controller.MT.L1_PUTX     28169401      0.00%      0.00%
system.ruby.L2Cache_Controller.MT.L2_Replacement         6755      0.00%      0.00%
system.ruby.L2Cache_Controller.MT.L2_Replacement_clean        62922      0.00%      0.00%
system.ruby.L2Cache_Controller.MT.MEM_Inv            2      0.00%      0.00%
system.ruby.L2Cache_Controller.M_I.Mem_Ack     11844333      0.00%      0.00%
system.ruby.L2Cache_Controller.MT_I.WB_Data         6197      0.00%      0.00%
system.ruby.L2Cache_Controller.MT_I.Ack_all          560      0.00%      0.00%
system.ruby.L2Cache_Controller.MT_I.MEM_Inv            2      0.00%      0.00%
system.ruby.L2Cache_Controller.MCT_I.WB_Data        42271      0.00%      0.00%
system.ruby.L2Cache_Controller.MCT_I.Ack_all        20651      0.00%      0.00%
system.ruby.L2Cache_Controller.I_I.Ack         109286      0.00%      0.00%
system.ruby.L2Cache_Controller.I_I.Ack_all        79566      0.00%      0.00%
system.ruby.L2Cache_Controller.S_I.Ack           1616      0.00%      0.00%
system.ruby.L2Cache_Controller.S_I.Ack_all         1378      0.00%      0.00%
system.ruby.L2Cache_Controller.ISS.L1_GETS           69      0.00%      0.00%
system.ruby.L2Cache_Controller.ISS.Mem_Data      6436795      0.00%      0.00%
system.ruby.L2Cache_Controller.IS.Mem_Data        79289      0.00%      0.00%
system.ruby.L2Cache_Controller.IM.Mem_Data      5365688      0.00%      0.00%
system.ruby.L2Cache_Controller.SS_MB.L1_GETS           58      0.00%      0.00%
system.ruby.L2Cache_Controller.SS_MB.L1_UPGRADE            4      0.00%      0.00%
system.ruby.L2Cache_Controller.SS_MB.Exclusive_Unblock        16922      0.00%      0.00%
system.ruby.L2Cache_Controller.MT_MB.L1_GETS          207      0.00%      0.00%
system.ruby.L2Cache_Controller.MT_MB.L1_GETX            2      0.00%      0.00%
system.ruby.L2Cache_Controller.MT_MB.Exclusive_Unblock     28253064      0.00%      0.00%
system.ruby.L2Cache_Controller.MT_IIB.L1_GETS            2      0.00%      0.00%
system.ruby.L2Cache_Controller.MT_IIB.L1_GETX            1      0.00%      0.00%
system.ruby.L2Cache_Controller.MT_IIB.WB_Data        11982      0.00%      0.00%
system.ruby.L2Cache_Controller.MT_IIB.WB_Data_clean        10835      0.00%      0.00%
system.ruby.L2Cache_Controller.MT_SB.L1_GETS            1      0.00%      0.00%
system.ruby.L2Cache_Controller.MT_SB.Unblock        22817      0.00%      0.00%

---------- End Simulation Statistics   ----------
