
---------- Begin Simulation Statistics ----------
sim_seconds                                  2.409221                       # Number of seconds simulated
sim_ticks                                2409221267500                       # Number of ticks simulated
final_tick                               54842584161501                       # Number of ticks from beginning of simulation (restored from checkpoints and never reset)
sim_freq                                 1000000000000                       # Frequency of simulated ticks
host_inst_rate                                 155236                       # Simulator instruction rate (inst/s)
host_op_rate                                   281399                       # Simulator op (including micro ops) rate (op/s)
host_tick_rate                              284824808                       # Simulator tick rate (ticks/s)
host_mem_usage                                1853268                       # Number of bytes of host memory used
host_seconds                                  8458.61                       # Real time elapsed on the host
sim_insts                                  1313082553                       # Number of instructions simulated
sim_ops                                    2380241029                       # Number of ops (including micro ops) simulated
system.voltage_domain.voltage                       1                       # Voltage in Volts
system.clk_domain.clock                          1000                       # Clock period in ticks
system.mem_ctrls.bytes_read::ruby.dir_cntrl0     83012992                       # Number of bytes read from this memory
system.mem_ctrls.bytes_read::total           83012992                       # Number of bytes read from this memory
system.mem_ctrls.bytes_written::ruby.dir_cntrl0     47274048                       # Number of bytes written to this memory
system.mem_ctrls.bytes_written::total        47274048                       # Number of bytes written to this memory
system.mem_ctrls.num_reads::ruby.dir_cntrl0      1297078                       # Number of read requests responded to by this memory
system.mem_ctrls.num_reads::total             1297078                       # Number of read requests responded to by this memory
system.mem_ctrls.num_writes::ruby.dir_cntrl0       738657                       # Number of write requests responded to by this memory
system.mem_ctrls.num_writes::total             738657                       # Number of write requests responded to by this memory
system.mem_ctrls.bw_read::ruby.dir_cntrl0     34456359                       # Total read bandwidth from this memory (bytes/s)
system.mem_ctrls.bw_read::total              34456359                       # Total read bandwidth from this memory (bytes/s)
system.mem_ctrls.bw_write::ruby.dir_cntrl0     19622128                       # Write bandwidth from this memory (bytes/s)
system.mem_ctrls.bw_write::total             19622128                       # Write bandwidth from this memory (bytes/s)
system.mem_ctrls.bw_total::ruby.dir_cntrl0     54078487                       # Total bandwidth to/from this memory (bytes/s)
system.mem_ctrls.bw_total::total             54078487                       # Total bandwidth to/from this memory (bytes/s)
system.mem_ctrls.readReqs                     1297078                       # Number of read requests accepted
system.mem_ctrls.writeReqs                     738657                       # Number of write requests accepted
system.mem_ctrls.readBursts                   1297078                       # Number of DRAM read bursts, including those serviced by the write queue
system.mem_ctrls.writeBursts                   738657                       # Number of DRAM write bursts, including those merged in the write queue
system.mem_ctrls.bytesReadDRAM               82980480                       # Total number of bytes read from DRAM
system.mem_ctrls.bytesReadWrQ                   32512                       # Total number of bytes read from write queue
system.mem_ctrls.bytesWritten                47272384                       # Total number of bytes written to DRAM
system.mem_ctrls.bytesReadSys                83012992                       # Total read bytes from the system interface side
system.mem_ctrls.bytesWrittenSys             47274048                       # Total written bytes from the system interface side
system.mem_ctrls.servicedByWrQ                    508                       # Number of DRAM read bursts serviced by the write queue
system.mem_ctrls.mergedWrBursts                    21                       # Number of DRAM write bursts merged with an existing one
system.mem_ctrls.neitherReadNorWriteReqs            0                       # Number of requests that are neither read nor write
system.mem_ctrls.perBankRdBursts::0             86254                       # Per bank write bursts
system.mem_ctrls.perBankRdBursts::1             87290                       # Per bank write bursts
system.mem_ctrls.perBankRdBursts::2             79648                       # Per bank write bursts
system.mem_ctrls.perBankRdBursts::3             80191                       # Per bank write bursts
system.mem_ctrls.perBankRdBursts::4             80826                       # Per bank write bursts
system.mem_ctrls.perBankRdBursts::5             80122                       # Per bank write bursts
system.mem_ctrls.perBankRdBursts::6             80430                       # Per bank write bursts
system.mem_ctrls.perBankRdBursts::7             78349                       # Per bank write bursts
system.mem_ctrls.perBankRdBursts::8             81099                       # Per bank write bursts
system.mem_ctrls.perBankRdBursts::9             78709                       # Per bank write bursts
system.mem_ctrls.perBankRdBursts::10            80037                       # Per bank write bursts
system.mem_ctrls.perBankRdBursts::11            80427                       # Per bank write bursts
system.mem_ctrls.perBankRdBursts::12            78179                       # Per bank write bursts
system.mem_ctrls.perBankRdBursts::13            80336                       # Per bank write bursts
system.mem_ctrls.perBankRdBursts::14            81205                       # Per bank write bursts
system.mem_ctrls.perBankRdBursts::15            83468                       # Per bank write bursts
system.mem_ctrls.perBankWrBursts::0             47888                       # Per bank write bursts
system.mem_ctrls.perBankWrBursts::1             50048                       # Per bank write bursts
system.mem_ctrls.perBankWrBursts::2             46423                       # Per bank write bursts
system.mem_ctrls.perBankWrBursts::3             45807                       # Per bank write bursts
system.mem_ctrls.perBankWrBursts::4             45735                       # Per bank write bursts
system.mem_ctrls.perBankWrBursts::5             45653                       # Per bank write bursts
system.mem_ctrls.perBankWrBursts::6             46361                       # Per bank write bursts
system.mem_ctrls.perBankWrBursts::7             45244                       # Per bank write bursts
system.mem_ctrls.perBankWrBursts::8             46335                       # Per bank write bursts
system.mem_ctrls.perBankWrBursts::9             44649                       # Per bank write bursts
system.mem_ctrls.perBankWrBursts::10            46164                       # Per bank write bursts
system.mem_ctrls.perBankWrBursts::11            45864                       # Per bank write bursts
system.mem_ctrls.perBankWrBursts::12            44868                       # Per bank write bursts
system.mem_ctrls.perBankWrBursts::13            45495                       # Per bank write bursts
system.mem_ctrls.perBankWrBursts::14            45928                       # Per bank write bursts
system.mem_ctrls.perBankWrBursts::15            46169                       # Per bank write bursts
system.mem_ctrls.numRdRetry                         0                       # Number of times read queue was full causing retry
system.mem_ctrls.numWrRetry                         0                       # Number of times write queue was full causing retry
system.mem_ctrls.totGap                  2409221102500                       # Total gap between requests
system.mem_ctrls.readPktSize::0                     0                       # Read request sizes (log2)
system.mem_ctrls.readPktSize::1                     0                       # Read request sizes (log2)
system.mem_ctrls.readPktSize::2                     0                       # Read request sizes (log2)
system.mem_ctrls.readPktSize::3                     0                       # Read request sizes (log2)
system.mem_ctrls.readPktSize::4                     0                       # Read request sizes (log2)
system.mem_ctrls.readPktSize::5                     0                       # Read request sizes (log2)
system.mem_ctrls.readPktSize::6               1297078                       # Read request sizes (log2)
system.mem_ctrls.writePktSize::0                    0                       # Write request sizes (log2)
system.mem_ctrls.writePktSize::1                    0                       # Write request sizes (log2)
system.mem_ctrls.writePktSize::2                    0                       # Write request sizes (log2)
system.mem_ctrls.writePktSize::3                    0                       # Write request sizes (log2)
system.mem_ctrls.writePktSize::4                    0                       # Write request sizes (log2)
system.mem_ctrls.writePktSize::5                    0                       # Write request sizes (log2)
system.mem_ctrls.writePktSize::6               738657                       # Write request sizes (log2)
system.mem_ctrls.rdQLenPdf::0                 1292822                       # What read queue length does an incoming req see
system.mem_ctrls.rdQLenPdf::1                    3731                       # What read queue length does an incoming req see
system.mem_ctrls.rdQLenPdf::2                      17                       # What read queue length does an incoming req see
system.mem_ctrls.rdQLenPdf::3                       0                       # What read queue length does an incoming req see
system.mem_ctrls.rdQLenPdf::4                       0                       # What read queue length does an incoming req see
system.mem_ctrls.rdQLenPdf::5                       0                       # What read queue length does an incoming req see
system.mem_ctrls.rdQLenPdf::6                       0                       # What read queue length does an incoming req see
system.mem_ctrls.rdQLenPdf::7                       0                       # What read queue length does an incoming req see
system.mem_ctrls.rdQLenPdf::8                       0                       # What read queue length does an incoming req see
system.mem_ctrls.rdQLenPdf::9                       0                       # What read queue length does an incoming req see
system.mem_ctrls.rdQLenPdf::10                      0                       # What read queue length does an incoming req see
system.mem_ctrls.rdQLenPdf::11                      0                       # What read queue length does an incoming req see
system.mem_ctrls.rdQLenPdf::12                      0                       # What read queue length does an incoming req see
system.mem_ctrls.rdQLenPdf::13                      0                       # What read queue length does an incoming req see
system.mem_ctrls.rdQLenPdf::14                      0                       # What read queue length does an incoming req see
system.mem_ctrls.rdQLenPdf::15                      0                       # What read queue length does an incoming req see
system.mem_ctrls.rdQLenPdf::16                      0                       # What read queue length does an incoming req see
system.mem_ctrls.rdQLenPdf::17                      0                       # What read queue length does an incoming req see
system.mem_ctrls.rdQLenPdf::18                      0                       # What read queue length does an incoming req see
system.mem_ctrls.rdQLenPdf::19                      0                       # What read queue length does an incoming req see
system.mem_ctrls.rdQLenPdf::20                      0                       # What read queue length does an incoming req see
system.mem_ctrls.rdQLenPdf::21                      0                       # What read queue length does an incoming req see
system.mem_ctrls.rdQLenPdf::22                      0                       # What read queue length does an incoming req see
system.mem_ctrls.rdQLenPdf::23                      0                       # What read queue length does an incoming req see
system.mem_ctrls.rdQLenPdf::24                      0                       # What read queue length does an incoming req see
system.mem_ctrls.rdQLenPdf::25                      0                       # What read queue length does an incoming req see
system.mem_ctrls.rdQLenPdf::26                      0                       # What read queue length does an incoming req see
system.mem_ctrls.rdQLenPdf::27                      0                       # What read queue length does an incoming req see
system.mem_ctrls.rdQLenPdf::28                      0                       # What read queue length does an incoming req see
system.mem_ctrls.rdQLenPdf::29                      0                       # What read queue length does an incoming req see
system.mem_ctrls.rdQLenPdf::30                      0                       # What read queue length does an incoming req see
system.mem_ctrls.rdQLenPdf::31                      0                       # What read queue length does an incoming req see
system.mem_ctrls.wrQLenPdf::0                       0                       # What write queue length does an incoming req see
system.mem_ctrls.wrQLenPdf::1                       0                       # What write queue length does an incoming req see
system.mem_ctrls.wrQLenPdf::2                       0                       # What write queue length does an incoming req see
system.mem_ctrls.wrQLenPdf::3                       0                       # What write queue length does an incoming req see
system.mem_ctrls.wrQLenPdf::4                       0                       # What write queue length does an incoming req see
system.mem_ctrls.wrQLenPdf::5                       0                       # What write queue length does an incoming req see
system.mem_ctrls.wrQLenPdf::6                       0                       # What write queue length does an incoming req see
system.mem_ctrls.wrQLenPdf::7                       0                       # What write queue length does an incoming req see
system.mem_ctrls.wrQLenPdf::8                       0                       # What write queue length does an incoming req see
system.mem_ctrls.wrQLenPdf::9                       0                       # What write queue length does an incoming req see
system.mem_ctrls.wrQLenPdf::10                      0                       # What write queue length does an incoming req see
system.mem_ctrls.wrQLenPdf::11                      0                       # What write queue length does an incoming req see
system.mem_ctrls.wrQLenPdf::12                      0                       # What write queue length does an incoming req see
system.mem_ctrls.wrQLenPdf::13                      0                       # What write queue length does an incoming req see
system.mem_ctrls.wrQLenPdf::14                      0                       # What write queue length does an incoming req see
system.mem_ctrls.wrQLenPdf::15                    741                       # What write queue length does an incoming req see
system.mem_ctrls.wrQLenPdf::16                    835                       # What write queue length does an incoming req see
system.mem_ctrls.wrQLenPdf::17                  45625                       # What write queue length does an incoming req see
system.mem_ctrls.wrQLenPdf::18                  46095                       # What write queue length does an incoming req see
system.mem_ctrls.wrQLenPdf::19                  46106                       # What write queue length does an incoming req see
system.mem_ctrls.wrQLenPdf::20                  46114                       # What write queue length does an incoming req see
system.mem_ctrls.wrQLenPdf::21                  46105                       # What write queue length does an incoming req see
system.mem_ctrls.wrQLenPdf::22                  46106                       # What write queue length does an incoming req see
system.mem_ctrls.wrQLenPdf::23                  46112                       # What write queue length does an incoming req see
system.mem_ctrls.wrQLenPdf::24                  46123                       # What write queue length does an incoming req see
system.mem_ctrls.wrQLenPdf::25                  46098                       # What write queue length does an incoming req see
system.mem_ctrls.wrQLenPdf::26                  46110                       # What write queue length does an incoming req see
system.mem_ctrls.wrQLenPdf::27                  46094                       # What write queue length does an incoming req see
system.mem_ctrls.wrQLenPdf::28                  46086                       # What write queue length does an incoming req see
system.mem_ctrls.wrQLenPdf::29                  46079                       # What write queue length does an incoming req see
system.mem_ctrls.wrQLenPdf::30                  46071                       # What write queue length does an incoming req see
system.mem_ctrls.wrQLenPdf::31                  46067                       # What write queue length does an incoming req see
system.mem_ctrls.wrQLenPdf::32                  46062                       # What write queue length does an incoming req see
system.mem_ctrls.wrQLenPdf::33                      4                       # What write queue length does an incoming req see
system.mem_ctrls.wrQLenPdf::34                      2                       # What write queue length does an incoming req see
system.mem_ctrls.wrQLenPdf::35                      1                       # What write queue length does an incoming req see
system.mem_ctrls.wrQLenPdf::36                      0                       # What write queue length does an incoming req see
system.mem_ctrls.wrQLenPdf::37                      0                       # What write queue length does an incoming req see
system.mem_ctrls.wrQLenPdf::38                      0                       # What write queue length does an incoming req see
system.mem_ctrls.wrQLenPdf::39                      0                       # What write queue length does an incoming req see
system.mem_ctrls.wrQLenPdf::40                      0                       # What write queue length does an incoming req see
system.mem_ctrls.wrQLenPdf::41                      0                       # What write queue length does an incoming req see
system.mem_ctrls.wrQLenPdf::42                      0                       # What write queue length does an incoming req see
system.mem_ctrls.wrQLenPdf::43                      0                       # What write queue length does an incoming req see
system.mem_ctrls.wrQLenPdf::44                      0                       # What write queue length does an incoming req see
system.mem_ctrls.wrQLenPdf::45                      0                       # What write queue length does an incoming req see
system.mem_ctrls.wrQLenPdf::46                      0                       # What write queue length does an incoming req see
system.mem_ctrls.wrQLenPdf::47                      0                       # What write queue length does an incoming req see
system.mem_ctrls.wrQLenPdf::48                      0                       # What write queue length does an incoming req see
system.mem_ctrls.wrQLenPdf::49                      0                       # What write queue length does an incoming req see
system.mem_ctrls.wrQLenPdf::50                      0                       # What write queue length does an incoming req see
system.mem_ctrls.wrQLenPdf::51                      0                       # What write queue length does an incoming req see
system.mem_ctrls.wrQLenPdf::52                      0                       # What write queue length does an incoming req see
system.mem_ctrls.wrQLenPdf::53                      0                       # What write queue length does an incoming req see
system.mem_ctrls.wrQLenPdf::54                      0                       # What write queue length does an incoming req see
system.mem_ctrls.wrQLenPdf::55                      0                       # What write queue length does an incoming req see
system.mem_ctrls.wrQLenPdf::56                      0                       # What write queue length does an incoming req see
system.mem_ctrls.wrQLenPdf::57                      0                       # What write queue length does an incoming req see
system.mem_ctrls.wrQLenPdf::58                      0                       # What write queue length does an incoming req see
system.mem_ctrls.wrQLenPdf::59                      0                       # What write queue length does an incoming req see
system.mem_ctrls.wrQLenPdf::60                      0                       # What write queue length does an incoming req see
system.mem_ctrls.wrQLenPdf::61                      0                       # What write queue length does an incoming req see
system.mem_ctrls.wrQLenPdf::62                      0                       # What write queue length does an incoming req see
system.mem_ctrls.wrQLenPdf::63                      0                       # What write queue length does an incoming req see
system.mem_ctrls.bytesPerActivate::samples       751600                       # Bytes accessed per row activation
system.mem_ctrls.bytesPerActivate::mean    173.301118                       # Bytes accessed per row activation
system.mem_ctrls.bytesPerActivate::gmean   122.188783                       # Bytes accessed per row activation
system.mem_ctrls.bytesPerActivate::stdev   192.459538                       # Bytes accessed per row activation
system.mem_ctrls.bytesPerActivate::0-127       361930     48.15%     48.15% # Bytes accessed per row activation
system.mem_ctrls.bytesPerActivate::128-255       222276     29.57%     77.73% # Bytes accessed per row activation
system.mem_ctrls.bytesPerActivate::256-383       106397     14.16%     91.88% # Bytes accessed per row activation
system.mem_ctrls.bytesPerActivate::384-511        16278      2.17%     94.05% # Bytes accessed per row activation
system.mem_ctrls.bytesPerActivate::512-639         9530      1.27%     95.32% # Bytes accessed per row activation
system.mem_ctrls.bytesPerActivate::640-767         6715      0.89%     96.21% # Bytes accessed per row activation
system.mem_ctrls.bytesPerActivate::768-895         5632      0.75%     96.96% # Bytes accessed per row activation
system.mem_ctrls.bytesPerActivate::896-1023         4666      0.62%     97.58% # Bytes accessed per row activation
system.mem_ctrls.bytesPerActivate::1024-1151        18176      2.42%    100.00% # Bytes accessed per row activation
system.mem_ctrls.bytesPerActivate::total       751600                       # Bytes accessed per row activation
system.mem_ctrls.rdPerTurnAround::samples        46061                       # Reads before turning the bus around for writes
system.mem_ctrls.rdPerTurnAround::mean      28.148868                       # Reads before turning the bus around for writes
system.mem_ctrls.rdPerTurnAround::stdev     39.813657                       # Reads before turning the bus around for writes
system.mem_ctrls.rdPerTurnAround::0-127         45609     99.02%     99.02% # Reads before turning the bus around for writes
system.mem_ctrls.rdPerTurnAround::128-255          353      0.77%     99.79% # Reads before turning the bus around for writes
system.mem_ctrls.rdPerTurnAround::256-383           67      0.15%     99.93% # Reads before turning the bus around for writes
system.mem_ctrls.rdPerTurnAround::384-511           20      0.04%     99.97% # Reads before turning the bus around for writes
system.mem_ctrls.rdPerTurnAround::512-639            1      0.00%     99.98% # Reads before turning the bus around for writes
system.mem_ctrls.rdPerTurnAround::640-767            1      0.00%     99.98% # Reads before turning the bus around for writes
system.mem_ctrls.rdPerTurnAround::768-895            1      0.00%     99.98% # Reads before turning the bus around for writes
system.mem_ctrls.rdPerTurnAround::1152-1279            1      0.00%     99.98% # Reads before turning the bus around for writes
system.mem_ctrls.rdPerTurnAround::1536-1663            1      0.00%     99.98% # Reads before turning the bus around for writes
system.mem_ctrls.rdPerTurnAround::1664-1791            1      0.00%     99.99% # Reads before turning the bus around for writes
system.mem_ctrls.rdPerTurnAround::2048-2175            3      0.01%     99.99% # Reads before turning the bus around for writes
system.mem_ctrls.rdPerTurnAround::2176-2303            1      0.00%    100.00% # Reads before turning the bus around for writes
system.mem_ctrls.rdPerTurnAround::2560-2687            1      0.00%    100.00% # Reads before turning the bus around for writes
system.mem_ctrls.rdPerTurnAround::3840-3967            1      0.00%    100.00% # Reads before turning the bus around for writes
system.mem_ctrls.rdPerTurnAround::total         46061                       # Reads before turning the bus around for writes
system.mem_ctrls.wrPerTurnAround::samples        46061                       # Writes before turning the bus around for reads
system.mem_ctrls.wrPerTurnAround::mean      16.035931                       # Writes before turning the bus around for reads
system.mem_ctrls.wrPerTurnAround::gmean     16.033649                       # Writes before turning the bus around for reads
system.mem_ctrls.wrPerTurnAround::stdev      0.290519                       # Writes before turning the bus around for reads
system.mem_ctrls.wrPerTurnAround::16            45239     98.22%     98.22% # Writes before turning the bus around for reads
system.mem_ctrls.wrPerTurnAround::17               50      0.11%     98.32% # Writes before turning the bus around for reads
system.mem_ctrls.wrPerTurnAround::18              756      1.64%     99.97% # Writes before turning the bus around for reads
system.mem_ctrls.wrPerTurnAround::19                7      0.02%     99.98% # Writes before turning the bus around for reads
system.mem_ctrls.wrPerTurnAround::21                3      0.01%     99.99% # Writes before turning the bus around for reads
system.mem_ctrls.wrPerTurnAround::22                2      0.00%     99.99% # Writes before turning the bus around for reads
system.mem_ctrls.wrPerTurnAround::23                2      0.00%    100.00% # Writes before turning the bus around for reads
system.mem_ctrls.wrPerTurnAround::25                1      0.00%    100.00% # Writes before turning the bus around for reads
system.mem_ctrls.wrPerTurnAround::38                1      0.00%    100.00% # Writes before turning the bus around for reads
system.mem_ctrls.wrPerTurnAround::total         46061                       # Writes before turning the bus around for reads
system.mem_ctrls.totQLat                  17412215907                       # Total ticks spent queuing
system.mem_ctrls.totMemAccLat             41722903407                       # Total ticks spent from burst creation until serviced by the DRAM
system.mem_ctrls.totBusLat                 6482850000                       # Total ticks spent in databus transfers
system.mem_ctrls.avgQLat                     13429.45                       # Average queueing delay per DRAM burst
system.mem_ctrls.avgBusLat                    5000.00                       # Average bus latency per DRAM burst
system.mem_ctrls.avgMemAccLat                32179.45                       # Average memory access latency per DRAM burst
system.mem_ctrls.avgRdBW                        34.44                       # Average DRAM read bandwidth in MiByte/s
system.mem_ctrls.avgWrBW                        19.62                       # Average achieved write bandwidth in MiByte/s
system.mem_ctrls.avgRdBWSys                     34.46                       # Average system read bandwidth in MiByte/s
system.mem_ctrls.avgWrBWSys                     19.62                       # Average system write bandwidth in MiByte/s
system.mem_ctrls.peakBW                      12800.00                       # Theoretical peak bandwidth in MiByte/s
system.mem_ctrls.busUtil                         0.42                       # Data bus utilization in percentage
system.mem_ctrls.busUtilRead                     0.27                       # Data bus utilization in percentage for reads
system.mem_ctrls.busUtilWrite                    0.15                       # Data bus utilization in percentage for writes
system.mem_ctrls.avgRdQLen                       1.00                       # Average read queue length when enqueuing
system.mem_ctrls.avgWrQLen                      25.50                       # Average write queue length when enqueuing
system.mem_ctrls.readRowHits                   964310                       # Number of row buffer hits during reads
system.mem_ctrls.writeRowHits                  319292                       # Number of row buffer hits during writes
system.mem_ctrls.readRowHitRate                 74.37                       # Row buffer hit rate for reads
system.mem_ctrls.writeRowHitRate                43.23                       # Row buffer hit rate for writes
system.mem_ctrls.avgGap                    1183464.99                       # Average gap between requests
system.mem_ctrls.pageHitRate                    63.07                       # Row buffer hit rate, read and write combined
system.mem_ctrls_0.actEnergy               2905292880                       # Energy for activate commands per rank (pJ)
system.mem_ctrls_0.preEnergy               1585229250                       # Energy for precharge commands per rank (pJ)
system.mem_ctrls_0.readEnergy              5252496600                       # Energy for read commands per rank (pJ)
system.mem_ctrls_0.writeEnergy             2441184480                       # Energy for write commands per rank (pJ)
system.mem_ctrls_0.refreshEnergy         158157582960                       # Energy for refresh commands per rank (pJ)
system.mem_ctrls_0.actBackEnergy         318290706360                       # Energy for active background per rank (pJ)
system.mem_ctrls_0.preBackEnergy         1173669986250                       # Energy for precharge background per rank (pJ)
system.mem_ctrls_0.totalEnergy           1662302478780                       # Total energy per rank (pJ)
system.mem_ctrls_0.averagePower            686.489409                       # Core power per rank (mW)
system.mem_ctrls_0.memoryStateTime::IDLE 1945539573501                       # Time in different power states
system.mem_ctrls_0.memoryStateTime::REF   80449200000                       # Time in different power states
system.mem_ctrls_0.memoryStateTime::PRE_PDN            0                       # Time in different power states
system.mem_ctrls_0.memoryStateTime::ACT  383232701499                       # Time in different power states
system.mem_ctrls_0.memoryStateTime::ACT_PDN            0                       # Time in different power states
system.mem_ctrls_1.actEnergy               2865474360                       # Energy for activate commands per rank (pJ)
system.mem_ctrls_1.preEnergy               1563502875                       # Energy for precharge commands per rank (pJ)
system.mem_ctrls_1.readEnergy              5169886800                       # Energy for read commands per rank (pJ)
system.mem_ctrls_1.writeEnergy             2394658080                       # Energy for write commands per rank (pJ)
system.mem_ctrls_1.refreshEnergy         158157582960                       # Energy for refresh commands per rank (pJ)
system.mem_ctrls_1.actBackEnergy         313337526345                       # Energy for active background per rank (pJ)
system.mem_ctrls_1.preBackEnergy         1178014872750                       # Energy for precharge background per rank (pJ)
system.mem_ctrls_1.totalEnergy           1661503504170                       # Total energy per rank (pJ)
system.mem_ctrls_1.averagePower            686.159456                       # Core power per rank (mW)
system.mem_ctrls_1.memoryStateTime::IDLE 1952075242751                       # Time in different power states
system.mem_ctrls_1.memoryStateTime::REF   80449200000                       # Time in different power states
system.mem_ctrls_1.memoryStateTime::PRE_PDN            0                       # Time in different power states
system.mem_ctrls_1.memoryStateTime::ACT  376697018499                       # Time in different power states
system.mem_ctrls_1.memoryStateTime::ACT_PDN            0                       # Time in different power states
system.cpu_voltage_domain.voltage                   1                       # Voltage in Volts
system.cpu_clk_domain.clock                       500                       # Clock period in ticks
system.cpu0.apic_clk_domain.clock                8000                       # Clock period in ticks
system.cpu0.numCycles                      4818628739                       # number of cpu cycles simulated
system.cpu0.numWorkItemsStarted                     0                       # number of work items this cpu started
system.cpu0.numWorkItemsCompleted                   0                       # number of work items this cpu completed
system.cpu0.kern.inst.arm                           0                       # number of arm instructions executed
system.cpu0.kern.inst.quiesce                       0                       # number of quiesce instructions executed
system.cpu0.committedInsts                    2212536                       # Number of instructions committed
system.cpu0.committedOps                      4774575                       # Number of ops (including micro ops) committed
system.cpu0.num_int_alu_accesses              4674709                       # Number of integer alu accesses
system.cpu0.num_fp_alu_accesses                    39                       # Number of float alu accesses
system.cpu0.num_func_calls                     134860                       # number of times a function call or return occured
system.cpu0.num_conditional_control_insts       349161                       # number of instructions that are conditional controls
system.cpu0.num_int_insts                     4674709                       # number of integer instructions
system.cpu0.num_fp_insts                           39                       # number of float instructions
system.cpu0.num_int_register_reads            9373713                       # number of times the integer registers were read
system.cpu0.num_int_register_writes           3858249                       # number of times the integer registers were written
system.cpu0.num_fp_register_reads                  63                       # number of times the floating registers were read
system.cpu0.num_fp_register_writes                 31                       # number of times the floating registers were written
system.cpu0.num_cc_register_reads             2797692                       # number of times the CC registers were read
system.cpu0.num_cc_register_writes            1468591                       # number of times the CC registers were written
system.cpu0.num_mem_refs                      1081667                       # number of memory refs
system.cpu0.num_load_insts                     668582                       # Number of load instructions
system.cpu0.num_store_insts                    413085                       # Number of store instructions
system.cpu0.num_idle_cycles              4806057744.244978                       # Number of idle cycles
system.cpu0.num_busy_cycles              12570994.755022                       # Number of busy cycles
system.cpu0.not_idle_fraction                0.002609                       # Percentage of non-idle cycles
system.cpu0.idle_fraction                    0.997391                       # Percentage of idle cycles
system.cpu0.Branches                           525049                       # Number of branches fetched
system.cpu0.op_class::No_OpClass                77809      1.63%      1.63% # Class of executed instruction
system.cpu0.op_class::IntAlu                  3580866     75.00%     76.63% # Class of executed instruction
system.cpu0.op_class::IntMult                    8200      0.17%     76.80% # Class of executed instruction
system.cpu0.op_class::IntDiv                    26025      0.55%     77.34% # Class of executed instruction
system.cpu0.op_class::FloatAdd                     30      0.00%     77.35% # Class of executed instruction
system.cpu0.op_class::FloatCmp                      0      0.00%     77.35% # Class of executed instruction
system.cpu0.op_class::FloatCvt                      0      0.00%     77.35% # Class of executed instruction
system.cpu0.op_class::FloatMult                     0      0.00%     77.35% # Class of executed instruction
system.cpu0.op_class::FloatDiv                      0      0.00%     77.35% # Class of executed instruction
system.cpu0.op_class::FloatSqrt                     0      0.00%     77.35% # Class of executed instruction
system.cpu0.op_class::SimdAdd                       0      0.00%     77.35% # Class of executed instruction
system.cpu0.op_class::SimdAddAcc                    0      0.00%     77.35% # Class of executed instruction
system.cpu0.op_class::SimdAlu                       0      0.00%     77.35% # Class of executed instruction
system.cpu0.op_class::SimdCmp                       0      0.00%     77.35% # Class of executed instruction
system.cpu0.op_class::SimdCvt                       0      0.00%     77.35% # Class of executed instruction
system.cpu0.op_class::SimdMisc                      0      0.00%     77.35% # Class of executed instruction
system.cpu0.op_class::SimdMult                      0      0.00%     77.35% # Class of executed instruction
system.cpu0.op_class::SimdMultAcc                   0      0.00%     77.35% # Class of executed instruction
system.cpu0.op_class::SimdShift                     0      0.00%     77.35% # Class of executed instruction
system.cpu0.op_class::SimdShiftAcc                  0      0.00%     77.35% # Class of executed instruction
system.cpu0.op_class::SimdSqrt                      0      0.00%     77.35% # Class of executed instruction
system.cpu0.op_class::SimdFloatAdd                  0      0.00%     77.35% # Class of executed instruction
system.cpu0.op_class::SimdFloatAlu                  0      0.00%     77.35% # Class of executed instruction
system.cpu0.op_class::SimdFloatCmp                  0      0.00%     77.35% # Class of executed instruction
system.cpu0.op_class::SimdFloatCvt                  0      0.00%     77.35% # Class of executed instruction
system.cpu0.op_class::SimdFloatDiv                  0      0.00%     77.35% # Class of executed instruction
system.cpu0.op_class::SimdFloatMisc                 0      0.00%     77.35% # Class of executed instruction
system.cpu0.op_class::SimdFloatMult                 0      0.00%     77.35% # Class of executed instruction
system.cpu0.op_class::SimdFloatMultAcc              0      0.00%     77.35% # Class of executed instruction
system.cpu0.op_class::SimdFloatSqrt                 0      0.00%     77.35% # Class of executed instruction
system.cpu0.op_class::MemRead                  668582     14.00%     91.35% # Class of executed instruction
system.cpu0.op_class::MemWrite                 413085      8.65%    100.00% # Class of executed instruction
system.cpu0.op_class::IprAccess                     0      0.00%    100.00% # Class of executed instruction
system.cpu0.op_class::InstPrefetch                  0      0.00%    100.00% # Class of executed instruction
system.cpu0.op_class::total                   4774597                       # Class of executed instruction
system.cpu1.apic_clk_domain.clock                8000                       # Clock period in ticks
system.cpu1.numCycles                      4820840160                       # number of cpu cycles simulated
system.cpu1.numWorkItemsStarted                     0                       # number of work items this cpu started
system.cpu1.numWorkItemsCompleted                   0                       # number of work items this cpu completed
system.cpu1.kern.inst.arm                           0                       # number of arm instructions executed
system.cpu1.kern.inst.quiesce                       0                       # number of quiesce instructions executed
system.cpu1.committedInsts                    4116866                       # Number of instructions committed
system.cpu1.committedOps                      8425420                       # Number of ops (including micro ops) committed
system.cpu1.num_int_alu_accesses              8196856                       # Number of integer alu accesses
system.cpu1.num_fp_alu_accesses                   372                       # Number of float alu accesses
system.cpu1.num_func_calls                     184328                       # number of times a function call or return occured
system.cpu1.num_conditional_control_insts       683371                       # number of instructions that are conditional controls
system.cpu1.num_int_insts                     8196856                       # number of integer instructions
system.cpu1.num_fp_insts                          372                       # number of float instructions
system.cpu1.num_int_register_reads           15955366                       # number of times the integer registers were read
system.cpu1.num_int_register_writes           6754907                       # number of times the integer registers were written
system.cpu1.num_fp_register_reads                 596                       # number of times the floating registers were read
system.cpu1.num_fp_register_writes                261                       # number of times the floating registers were written
system.cpu1.num_cc_register_reads             5171845                       # number of times the CC registers were read
system.cpu1.num_cc_register_writes            3119469                       # number of times the CC registers were written
system.cpu1.num_mem_refs                      1701113                       # number of memory refs
system.cpu1.num_load_insts                    1064212                       # Number of load instructions
system.cpu1.num_store_insts                    636901                       # Number of store instructions
system.cpu1.num_idle_cycles              4797310636.700498                       # Number of idle cycles
system.cpu1.num_busy_cycles              23529523.299502                       # Number of busy cycles
system.cpu1.not_idle_fraction                0.004881                       # Percentage of non-idle cycles
system.cpu1.idle_fraction                    0.995119                       # Percentage of idle cycles
system.cpu1.Branches                           933867                       # Number of branches fetched
system.cpu1.op_class::No_OpClass                84260      1.00%      1.00% # Class of executed instruction
system.cpu1.op_class::IntAlu                  6603975     78.38%     79.38% # Class of executed instruction
system.cpu1.op_class::IntMult                    9917      0.12%     79.50% # Class of executed instruction
system.cpu1.op_class::IntDiv                    25997      0.31%     79.81% # Class of executed instruction
system.cpu1.op_class::FloatAdd                    244      0.00%     79.81% # Class of executed instruction
system.cpu1.op_class::FloatCmp                      0      0.00%     79.81% # Class of executed instruction
system.cpu1.op_class::FloatCvt                      0      0.00%     79.81% # Class of executed instruction
system.cpu1.op_class::FloatMult                     0      0.00%     79.81% # Class of executed instruction
system.cpu1.op_class::FloatDiv                      0      0.00%     79.81% # Class of executed instruction
system.cpu1.op_class::FloatSqrt                     0      0.00%     79.81% # Class of executed instruction
system.cpu1.op_class::SimdAdd                       0      0.00%     79.81% # Class of executed instruction
system.cpu1.op_class::SimdAddAcc                    0      0.00%     79.81% # Class of executed instruction
system.cpu1.op_class::SimdAlu                       0      0.00%     79.81% # Class of executed instruction
system.cpu1.op_class::SimdCmp                       0      0.00%     79.81% # Class of executed instruction
system.cpu1.op_class::SimdCvt                       0      0.00%     79.81% # Class of executed instruction
system.cpu1.op_class::SimdMisc                      0      0.00%     79.81% # Class of executed instruction
system.cpu1.op_class::SimdMult                      0      0.00%     79.81% # Class of executed instruction
system.cpu1.op_class::SimdMultAcc                   0      0.00%     79.81% # Class of executed instruction
system.cpu1.op_class::SimdShift                     0      0.00%     79.81% # Class of executed instruction
system.cpu1.op_class::SimdShiftAcc                  0      0.00%     79.81% # Class of executed instruction
system.cpu1.op_class::SimdSqrt                      0      0.00%     79.81% # Class of executed instruction
system.cpu1.op_class::SimdFloatAdd                  0      0.00%     79.81% # Class of executed instruction
system.cpu1.op_class::SimdFloatAlu                  0      0.00%     79.81% # Class of executed instruction
system.cpu1.op_class::SimdFloatCmp                  0      0.00%     79.81% # Class of executed instruction
system.cpu1.op_class::SimdFloatCvt                  0      0.00%     79.81% # Class of executed instruction
system.cpu1.op_class::SimdFloatDiv                  0      0.00%     79.81% # Class of executed instruction
system.cpu1.op_class::SimdFloatMisc                 0      0.00%     79.81% # Class of executed instruction
system.cpu1.op_class::SimdFloatMult                 0      0.00%     79.81% # Class of executed instruction
system.cpu1.op_class::SimdFloatMultAcc              0      0.00%     79.81% # Class of executed instruction
system.cpu1.op_class::SimdFloatSqrt                 0      0.00%     79.81% # Class of executed instruction
system.cpu1.op_class::MemRead                 1064212     12.63%     92.44% # Class of executed instruction
system.cpu1.op_class::MemWrite                 636901      7.56%    100.00% # Class of executed instruction
system.cpu1.op_class::IprAccess                     0      0.00%    100.00% # Class of executed instruction
system.cpu1.op_class::InstPrefetch                  0      0.00%    100.00% # Class of executed instruction
system.cpu1.op_class::total                   8425506                       # Class of executed instruction
system.cpu2.apic_clk_domain.clock                8000                       # Clock period in ticks
system.cpu2.numCycles                      4814275969                       # number of cpu cycles simulated
system.cpu2.numWorkItemsStarted                     0                       # number of work items this cpu started
system.cpu2.numWorkItemsCompleted                   0                       # number of work items this cpu completed
system.cpu2.kern.inst.arm                           0                       # number of arm instructions executed
system.cpu2.kern.inst.quiesce                       0                       # number of quiesce instructions executed
system.cpu2.committedInsts                 1297230181                       # Number of instructions committed
system.cpu2.committedOps                   2348207004                       # Number of ops (including micro ops) committed
system.cpu2.num_int_alu_accesses           1506245611                       # Number of integer alu accesses
system.cpu2.num_fp_alu_accesses            1130300518                       # Number of float alu accesses
system.cpu2.num_func_calls                     783385                       # number of times a function call or return occured
system.cpu2.num_conditional_control_insts    160846282                       # number of instructions that are conditional controls
system.cpu2.num_int_insts                  1506245611                       # number of integer instructions
system.cpu2.num_fp_insts                   1130300518                       # number of float instructions
system.cpu2.num_int_register_reads         2939179013                       # number of times the integer registers were read
system.cpu2.num_int_register_writes        1033403421                       # number of times the integer registers were written
system.cpu2.num_fp_register_reads          1382500686                       # number of times the floating registers were read
system.cpu2.num_fp_register_writes         1075410587                       # number of times the floating registers were written
system.cpu2.num_cc_register_reads           938743861                       # number of times the CC registers were read
system.cpu2.num_cc_register_writes          527894387                       # number of times the CC registers were written
system.cpu2.num_mem_refs                    388222653                       # number of memory refs
system.cpu2.num_load_insts                  349882429                       # Number of load instructions
system.cpu2.num_store_insts                  38340224                       # Number of store instructions
system.cpu2.num_idle_cycles              24730134.046206                       # Number of idle cycles
system.cpu2.num_busy_cycles              4789545834.953794                       # Number of busy cycles
system.cpu2.not_idle_fraction                0.994863                       # Percentage of non-idle cycles
system.cpu2.idle_fraction                    0.005137                       # Percentage of idle cycles
system.cpu2.Branches                        166215616                       # Number of branches fetched
system.cpu2.op_class::No_OpClass              3897372      0.17%      0.17% # Class of executed instruction
system.cpu2.op_class::IntAlu               1228391013     52.31%     52.48% # Class of executed instruction
system.cpu2.op_class::IntMult                 4267131      0.18%     52.66% # Class of executed instruction
system.cpu2.op_class::IntDiv                      728      0.00%     52.66% # Class of executed instruction
system.cpu2.op_class::FloatAdd              723444434     30.81%     83.47% # Class of executed instruction
system.cpu2.op_class::FloatCmp                      0      0.00%     83.47% # Class of executed instruction
system.cpu2.op_class::FloatCvt                      0      0.00%     83.47% # Class of executed instruction
system.cpu2.op_class::FloatMult                     0      0.00%     83.47% # Class of executed instruction
system.cpu2.op_class::FloatDiv                      0      0.00%     83.47% # Class of executed instruction
system.cpu2.op_class::FloatSqrt                     0      0.00%     83.47% # Class of executed instruction
system.cpu2.op_class::SimdAdd                       0      0.00%     83.47% # Class of executed instruction
system.cpu2.op_class::SimdAddAcc                    0      0.00%     83.47% # Class of executed instruction
system.cpu2.op_class::SimdAlu                       0      0.00%     83.47% # Class of executed instruction
system.cpu2.op_class::SimdCmp                       0      0.00%     83.47% # Class of executed instruction
system.cpu2.op_class::SimdCvt                       0      0.00%     83.47% # Class of executed instruction
system.cpu2.op_class::SimdMisc                      0      0.00%     83.47% # Class of executed instruction
system.cpu2.op_class::SimdMult                      0      0.00%     83.47% # Class of executed instruction
system.cpu2.op_class::SimdMultAcc                   0      0.00%     83.47% # Class of executed instruction
system.cpu2.op_class::SimdShift                     0      0.00%     83.47% # Class of executed instruction
system.cpu2.op_class::SimdShiftAcc                  0      0.00%     83.47% # Class of executed instruction
system.cpu2.op_class::SimdSqrt                      0      0.00%     83.47% # Class of executed instruction
system.cpu2.op_class::SimdFloatAdd                  0      0.00%     83.47% # Class of executed instruction
system.cpu2.op_class::SimdFloatAlu                  0      0.00%     83.47% # Class of executed instruction
system.cpu2.op_class::SimdFloatCmp                  0      0.00%     83.47% # Class of executed instruction
system.cpu2.op_class::SimdFloatCvt                  0      0.00%     83.47% # Class of executed instruction
system.cpu2.op_class::SimdFloatDiv                  0      0.00%     83.47% # Class of executed instruction
system.cpu2.op_class::SimdFloatMisc                 0      0.00%     83.47% # Class of executed instruction
system.cpu2.op_class::SimdFloatMult                 0      0.00%     83.47% # Class of executed instruction
system.cpu2.op_class::SimdFloatMultAcc              0      0.00%     83.47% # Class of executed instruction
system.cpu2.op_class::SimdFloatSqrt                 0      0.00%     83.47% # Class of executed instruction
system.cpu2.op_class::MemRead               349882429     14.90%     98.37% # Class of executed instruction
system.cpu2.op_class::MemWrite               38340224      1.63%    100.00% # Class of executed instruction
system.cpu2.op_class::IprAccess                     0      0.00%    100.00% # Class of executed instruction
system.cpu2.op_class::InstPrefetch                  0      0.00%    100.00% # Class of executed instruction
system.cpu2.op_class::total                2348223331                       # Class of executed instruction
system.cpu3.apic_clk_domain.clock                8000                       # Clock period in ticks
system.cpu3.numCycles                      4816079603                       # number of cpu cycles simulated
system.cpu3.numWorkItemsStarted                     0                       # number of work items this cpu started
system.cpu3.numWorkItemsCompleted                   0                       # number of work items this cpu completed
system.cpu3.kern.inst.arm                           0                       # number of arm instructions executed
system.cpu3.kern.inst.quiesce                       0                       # number of quiesce instructions executed
system.cpu3.committedInsts                    4765731                       # Number of instructions committed
system.cpu3.committedOps                      9596133                       # Number of ops (including micro ops) committed
system.cpu3.num_int_alu_accesses              9423455                       # Number of integer alu accesses
system.cpu3.num_fp_alu_accesses                  1778                       # Number of float alu accesses
system.cpu3.num_func_calls                     247348                       # number of times a function call or return occured
system.cpu3.num_conditional_control_insts       829023                       # number of instructions that are conditional controls
system.cpu3.num_int_insts                     9423455                       # number of integer instructions
system.cpu3.num_fp_insts                         1778                       # number of float instructions
system.cpu3.num_int_register_reads           18627452                       # number of times the integer registers were read
system.cpu3.num_int_register_writes           7672346                       # number of times the integer registers were written
system.cpu3.num_fp_register_reads                2988                       # number of times the floating registers were read
system.cpu3.num_fp_register_writes               1416                       # number of times the floating registers were written
system.cpu3.num_cc_register_reads             6184899                       # number of times the CC registers were read
system.cpu3.num_cc_register_writes            3272206                       # number of times the CC registers were written
system.cpu3.num_mem_refs                      2127157                       # number of memory refs
system.cpu3.num_load_insts                    1378409                       # Number of load instructions
system.cpu3.num_store_insts                    748748                       # Number of store instructions
system.cpu3.num_idle_cycles              4792381598.066994                       # Number of idle cycles
system.cpu3.num_busy_cycles              23698004.933006                       # Number of busy cycles
system.cpu3.not_idle_fraction                0.004921                       # Percentage of non-idle cycles
system.cpu3.idle_fraction                    0.995079                       # Percentage of idle cycles
system.cpu3.Branches                          1122857                       # Number of branches fetched
system.cpu3.op_class::No_OpClass                75520      0.79%      0.79% # Class of executed instruction
system.cpu3.op_class::IntAlu                  7357936     76.68%     77.46% # Class of executed instruction
system.cpu3.op_class::IntMult                    8607      0.09%     77.55% # Class of executed instruction
system.cpu3.op_class::IntDiv                    25658      0.27%     77.82% # Class of executed instruction
system.cpu3.op_class::FloatAdd                   1344      0.01%     77.83% # Class of executed instruction
system.cpu3.op_class::FloatCmp                      0      0.00%     77.83% # Class of executed instruction
system.cpu3.op_class::FloatCvt                      0      0.00%     77.83% # Class of executed instruction
system.cpu3.op_class::FloatMult                     0      0.00%     77.83% # Class of executed instruction
system.cpu3.op_class::FloatDiv                      0      0.00%     77.83% # Class of executed instruction
system.cpu3.op_class::FloatSqrt                     0      0.00%     77.83% # Class of executed instruction
system.cpu3.op_class::SimdAdd                       0      0.00%     77.83% # Class of executed instruction
system.cpu3.op_class::SimdAddAcc                    0      0.00%     77.83% # Class of executed instruction
system.cpu3.op_class::SimdAlu                       0      0.00%     77.83% # Class of executed instruction
system.cpu3.op_class::SimdCmp                       0      0.00%     77.83% # Class of executed instruction
system.cpu3.op_class::SimdCvt                       0      0.00%     77.83% # Class of executed instruction
system.cpu3.op_class::SimdMisc                      0      0.00%     77.83% # Class of executed instruction
system.cpu3.op_class::SimdMult                      0      0.00%     77.83% # Class of executed instruction
system.cpu3.op_class::SimdMultAcc                   0      0.00%     77.83% # Class of executed instruction
system.cpu3.op_class::SimdShift                     0      0.00%     77.83% # Class of executed instruction
system.cpu3.op_class::SimdShiftAcc                  0      0.00%     77.83% # Class of executed instruction
system.cpu3.op_class::SimdSqrt                      0      0.00%     77.83% # Class of executed instruction
system.cpu3.op_class::SimdFloatAdd                  0      0.00%     77.83% # Class of executed instruction
system.cpu3.op_class::SimdFloatAlu                  0      0.00%     77.83% # Class of executed instruction
system.cpu3.op_class::SimdFloatCmp                  0      0.00%     77.83% # Class of executed instruction
system.cpu3.op_class::SimdFloatCvt                  0      0.00%     77.83% # Class of executed instruction
system.cpu3.op_class::SimdFloatDiv                  0      0.00%     77.83% # Class of executed instruction
system.cpu3.op_class::SimdFloatMisc                 0      0.00%     77.83% # Class of executed instruction
system.cpu3.op_class::SimdFloatMult                 0      0.00%     77.83% # Class of executed instruction
system.cpu3.op_class::SimdFloatMultAcc              0      0.00%     77.83% # Class of executed instruction
system.cpu3.op_class::SimdFloatSqrt                 0      0.00%     77.83% # Class of executed instruction
system.cpu3.op_class::MemRead                 1378409     14.36%     92.20% # Class of executed instruction
system.cpu3.op_class::MemWrite                 748748      7.80%    100.00% # Class of executed instruction
system.cpu3.op_class::IprAccess                     0      0.00%    100.00% # Class of executed instruction
system.cpu3.op_class::InstPrefetch                  0      0.00%    100.00% # Class of executed instruction
system.cpu3.op_class::total                   9596222                       # Class of executed instruction
system.iobus.trans_dist::ReadReq                  401                       # Transaction distribution
system.iobus.trans_dist::ReadResp                 401                       # Transaction distribution
system.iobus.trans_dist::WriteReq                3113                       # Transaction distribution
system.iobus.trans_dist::WriteResp               3113                       # Transaction distribution
system.iobus.trans_dist::MessageReq                54                       # Transaction distribution
system.iobus.trans_dist::MessageResp               54                       # Transaction distribution
system.iobus.pkt_count_system.pc.south_bridge.io_apic.int_master::system.ruby.l0_cntrl0.sequencer.pio-slave-port           22                       # Packet count per connected master and slave (bytes)
system.iobus.pkt_count_system.pc.south_bridge.io_apic.int_master::system.ruby.l0_cntrl1.sequencer.pio-slave-port           22                       # Packet count per connected master and slave (bytes)
system.iobus.pkt_count_system.pc.south_bridge.io_apic.int_master::system.ruby.l0_cntrl2.sequencer.pio-slave-port           20                       # Packet count per connected master and slave (bytes)
system.iobus.pkt_count_system.pc.south_bridge.io_apic.int_master::system.ruby.l0_cntrl3.sequencer.pio-slave-port           22                       # Packet count per connected master and slave (bytes)
system.iobus.pkt_count_system.pc.south_bridge.io_apic.int_master::total           86                       # Packet count per connected master and slave (bytes)
system.iobus.pkt_count_system.ruby.l0_cntrl0.sequencer.mem-master-port::system.pc.south_bridge.ide.pio          426                       # Packet count per connected master and slave (bytes)
system.iobus.pkt_count_system.ruby.l0_cntrl0.sequencer.mem-master-port::system.pc.south_bridge.io_apic.pio            8                       # Packet count per connected master and slave (bytes)
system.iobus.pkt_count_system.ruby.l0_cntrl0.sequencer.mem-master-port::system.pc.com_1.pio            2                       # Packet count per connected master and slave (bytes)
system.iobus.pkt_count_system.ruby.l0_cntrl0.sequencer.mem-master-port::system.ruby.l0_cntrl0.sequencer.pio-slave-port         1236                       # Packet count per connected master and slave (bytes)
system.iobus.pkt_count_system.ruby.l0_cntrl0.sequencer.mem-master-port::system.ruby.l0_cntrl1.sequencer.pio-slave-port            2                       # Packet count per connected master and slave (bytes)
system.iobus.pkt_count_system.ruby.l0_cntrl0.sequencer.mem-master-port::total         1674                       # Packet count per connected master and slave (bytes)
system.iobus.pkt_count_system.ruby.l0_cntrl1.sequencer.mem-master-port::system.pc.south_bridge.ide.pio          562                       # Packet count per connected master and slave (bytes)
system.iobus.pkt_count_system.ruby.l0_cntrl1.sequencer.mem-master-port::system.pc.south_bridge.io_apic.pio            8                       # Packet count per connected master and slave (bytes)
system.iobus.pkt_count_system.ruby.l0_cntrl1.sequencer.mem-master-port::system.ruby.l0_cntrl0.sequencer.pio-slave-port            2                       # Packet count per connected master and slave (bytes)
system.iobus.pkt_count_system.ruby.l0_cntrl1.sequencer.mem-master-port::system.ruby.l0_cntrl1.sequencer.pio-slave-port         1258                       # Packet count per connected master and slave (bytes)
system.iobus.pkt_count_system.ruby.l0_cntrl1.sequencer.mem-master-port::system.ruby.l0_cntrl2.sequencer.pio-slave-port            6                       # Packet count per connected master and slave (bytes)
system.iobus.pkt_count_system.ruby.l0_cntrl1.sequencer.mem-master-port::total         1836                       # Packet count per connected master and slave (bytes)
system.iobus.pkt_count_system.ruby.l0_cntrl2.sequencer.mem-master-port::system.pc.south_bridge.ide.pio          392                       # Packet count per connected master and slave (bytes)
system.iobus.pkt_count_system.ruby.l0_cntrl2.sequencer.mem-master-port::system.ruby.l0_cntrl1.sequencer.pio-slave-port            4                       # Packet count per connected master and slave (bytes)
system.iobus.pkt_count_system.ruby.l0_cntrl2.sequencer.mem-master-port::system.ruby.l0_cntrl2.sequencer.pio-slave-port         1250                       # Packet count per connected master and slave (bytes)
system.iobus.pkt_count_system.ruby.l0_cntrl2.sequencer.mem-master-port::system.ruby.l0_cntrl3.sequencer.pio-slave-port            2                       # Packet count per connected master and slave (bytes)
system.iobus.pkt_count_system.ruby.l0_cntrl2.sequencer.mem-master-port::total         1648                       # Packet count per connected master and slave (bytes)
system.iobus.pkt_count_system.ruby.l0_cntrl3.sequencer.mem-master-port::system.pc.south_bridge.ide.pio          460                       # Packet count per connected master and slave (bytes)
system.iobus.pkt_count_system.ruby.l0_cntrl3.sequencer.mem-master-port::system.pc.south_bridge.io_apic.pio            6                       # Packet count per connected master and slave (bytes)
system.iobus.pkt_count_system.ruby.l0_cntrl3.sequencer.mem-master-port::system.pc.com_1.pio          174                       # Packet count per connected master and slave (bytes)
system.iobus.pkt_count_system.ruby.l0_cntrl3.sequencer.mem-master-port::system.ruby.l0_cntrl0.sequencer.pio-slave-port            2                       # Packet count per connected master and slave (bytes)
system.iobus.pkt_count_system.ruby.l0_cntrl3.sequencer.mem-master-port::system.ruby.l0_cntrl1.sequencer.pio-slave-port            2                       # Packet count per connected master and slave (bytes)
system.iobus.pkt_count_system.ruby.l0_cntrl3.sequencer.mem-master-port::system.ruby.l0_cntrl2.sequencer.pio-slave-port            2                       # Packet count per connected master and slave (bytes)
system.iobus.pkt_count_system.ruby.l0_cntrl3.sequencer.mem-master-port::system.ruby.l0_cntrl3.sequencer.pio-slave-port         1246                       # Packet count per connected master and slave (bytes)
system.iobus.pkt_count_system.ruby.l0_cntrl3.sequencer.mem-master-port::total         1892                       # Packet count per connected master and slave (bytes)
system.iobus.pkt_count::total                    7136                       # Packet count per connected master and slave (bytes)
system.iobus.pkt_size_system.pc.south_bridge.io_apic.int_master::system.ruby.l0_cntrl0.sequencer.pio-slave-port           44                       # Cumulative packet size per connected master and slave (bytes)
system.iobus.pkt_size_system.pc.south_bridge.io_apic.int_master::system.ruby.l0_cntrl1.sequencer.pio-slave-port           44                       # Cumulative packet size per connected master and slave (bytes)
system.iobus.pkt_size_system.pc.south_bridge.io_apic.int_master::system.ruby.l0_cntrl2.sequencer.pio-slave-port           40                       # Cumulative packet size per connected master and slave (bytes)
system.iobus.pkt_size_system.pc.south_bridge.io_apic.int_master::system.ruby.l0_cntrl3.sequencer.pio-slave-port           44                       # Cumulative packet size per connected master and slave (bytes)
system.iobus.pkt_size_system.pc.south_bridge.io_apic.int_master::total          172                       # Cumulative packet size per connected master and slave (bytes)
system.iobus.pkt_size_system.ruby.l0_cntrl0.sequencer.mem-master-port::system.pc.south_bridge.ide.pio          240                       # Cumulative packet size per connected master and slave (bytes)
system.iobus.pkt_size_system.ruby.l0_cntrl0.sequencer.mem-master-port::system.pc.south_bridge.io_apic.pio           16                       # Cumulative packet size per connected master and slave (bytes)
system.iobus.pkt_size_system.ruby.l0_cntrl0.sequencer.mem-master-port::system.pc.com_1.pio            1                       # Cumulative packet size per connected master and slave (bytes)
system.iobus.pkt_size_system.ruby.l0_cntrl0.sequencer.mem-master-port::system.ruby.l0_cntrl0.sequencer.pio-slave-port         2472                       # Cumulative packet size per connected master and slave (bytes)
system.iobus.pkt_size_system.ruby.l0_cntrl0.sequencer.mem-master-port::system.ruby.l0_cntrl1.sequencer.pio-slave-port            4                       # Cumulative packet size per connected master and slave (bytes)
system.iobus.pkt_size_system.ruby.l0_cntrl0.sequencer.mem-master-port::total         2733                       # Cumulative packet size per connected master and slave (bytes)
system.iobus.pkt_size_system.ruby.l0_cntrl1.sequencer.mem-master-port::system.pc.south_bridge.ide.pio          320                       # Cumulative packet size per connected master and slave (bytes)
system.iobus.pkt_size_system.ruby.l0_cntrl1.sequencer.mem-master-port::system.pc.south_bridge.io_apic.pio           16                       # Cumulative packet size per connected master and slave (bytes)
system.iobus.pkt_size_system.ruby.l0_cntrl1.sequencer.mem-master-port::system.ruby.l0_cntrl0.sequencer.pio-slave-port            4                       # Cumulative packet size per connected master and slave (bytes)
system.iobus.pkt_size_system.ruby.l0_cntrl1.sequencer.mem-master-port::system.ruby.l0_cntrl1.sequencer.pio-slave-port         2516                       # Cumulative packet size per connected master and slave (bytes)
system.iobus.pkt_size_system.ruby.l0_cntrl1.sequencer.mem-master-port::system.ruby.l0_cntrl2.sequencer.pio-slave-port           12                       # Cumulative packet size per connected master and slave (bytes)
system.iobus.pkt_size_system.ruby.l0_cntrl1.sequencer.mem-master-port::total         2868                       # Cumulative packet size per connected master and slave (bytes)
system.iobus.pkt_size_system.ruby.l0_cntrl2.sequencer.mem-master-port::system.pc.south_bridge.ide.pio          220                       # Cumulative packet size per connected master and slave (bytes)
system.iobus.pkt_size_system.ruby.l0_cntrl2.sequencer.mem-master-port::system.ruby.l0_cntrl1.sequencer.pio-slave-port            8                       # Cumulative packet size per connected master and slave (bytes)
system.iobus.pkt_size_system.ruby.l0_cntrl2.sequencer.mem-master-port::system.ruby.l0_cntrl2.sequencer.pio-slave-port         2500                       # Cumulative packet size per connected master and slave (bytes)
system.iobus.pkt_size_system.ruby.l0_cntrl2.sequencer.mem-master-port::system.ruby.l0_cntrl3.sequencer.pio-slave-port            4                       # Cumulative packet size per connected master and slave (bytes)
system.iobus.pkt_size_system.ruby.l0_cntrl2.sequencer.mem-master-port::total         2732                       # Cumulative packet size per connected master and slave (bytes)
system.iobus.pkt_size_system.ruby.l0_cntrl3.sequencer.mem-master-port::system.pc.south_bridge.ide.pio          260                       # Cumulative packet size per connected master and slave (bytes)
system.iobus.pkt_size_system.ruby.l0_cntrl3.sequencer.mem-master-port::system.pc.south_bridge.io_apic.pio           12                       # Cumulative packet size per connected master and slave (bytes)
system.iobus.pkt_size_system.ruby.l0_cntrl3.sequencer.mem-master-port::system.pc.com_1.pio           87                       # Cumulative packet size per connected master and slave (bytes)
system.iobus.pkt_size_system.ruby.l0_cntrl3.sequencer.mem-master-port::system.ruby.l0_cntrl0.sequencer.pio-slave-port            4                       # Cumulative packet size per connected master and slave (bytes)
system.iobus.pkt_size_system.ruby.l0_cntrl3.sequencer.mem-master-port::system.ruby.l0_cntrl1.sequencer.pio-slave-port            4                       # Cumulative packet size per connected master and slave (bytes)
system.iobus.pkt_size_system.ruby.l0_cntrl3.sequencer.mem-master-port::system.ruby.l0_cntrl2.sequencer.pio-slave-port            4                       # Cumulative packet size per connected master and slave (bytes)
system.iobus.pkt_size_system.ruby.l0_cntrl3.sequencer.mem-master-port::system.ruby.l0_cntrl3.sequencer.pio-slave-port         2492                       # Cumulative packet size per connected master and slave (bytes)
system.iobus.pkt_size_system.ruby.l0_cntrl3.sequencer.mem-master-port::total         2863                       # Cumulative packet size per connected master and slave (bytes)
system.iobus.pkt_size::total                    11368                       # Cumulative packet size per connected master and slave (bytes)
system.iobus.reqLayer2.occupancy              1601500                       # Layer occupancy (ticks)
system.iobus.reqLayer2.utilization                0.0                       # Layer utilization (%)
system.iobus.reqLayer8.occupancy                20497                       # Layer occupancy (ticks)
system.iobus.reqLayer8.utilization                0.0                       # Layer utilization (%)
system.iobus.reqLayer12.occupancy              112000                       # Layer occupancy (ticks)
system.iobus.reqLayer12.utilization               0.0                       # Layer utilization (%)
system.iobus.reqLayer17.occupancy             1524490                       # Layer occupancy (ticks)
system.iobus.reqLayer17.utilization               0.0                       # Layer utilization (%)
system.iobus.reqLayer18.occupancy             1564489                       # Layer occupancy (ticks)
system.iobus.reqLayer18.utilization               0.0                       # Layer utilization (%)
system.iobus.reqLayer19.occupancy             1703954                       # Layer occupancy (ticks)
system.iobus.reqLayer19.utilization               0.0                       # Layer utilization (%)
system.iobus.reqLayer20.occupancy             1540487                       # Layer occupancy (ticks)
system.iobus.reqLayer20.utilization               0.0                       # Layer utilization (%)
system.iobus.respLayer0.occupancy               74960                       # Layer occupancy (ticks)
system.iobus.respLayer0.utilization               0.0                       # Layer utilization (%)
system.iobus.respLayer2.occupancy             1225000                       # Layer occupancy (ticks)
system.iobus.respLayer2.utilization               0.0                       # Layer utilization (%)
system.iobus.respLayer4.occupancy             1331500                       # Layer occupancy (ticks)
system.iobus.respLayer4.utilization               0.0                       # Layer utilization (%)
system.iobus.respLayer6.occupancy             1211500                       # Layer occupancy (ticks)
system.iobus.respLayer6.utilization               0.0                       # Layer utilization (%)
system.iobus.respLayer8.occupancy             1406500                       # Layer occupancy (ticks)
system.iobus.respLayer8.utilization               0.0                       # Layer utilization (%)
system.pc.south_bridge.ide.disks.dma_read_full_pages          356                       # Number of full page size DMA reads (not PRD).
system.pc.south_bridge.ide.disks.dma_read_bytes      1458176                       # Number of bytes transfered via DMA reads (not PRD).
system.pc.south_bridge.ide.disks.dma_read_txs          356                       # Number of DMA read transactions (not PRD).
system.pc.south_bridge.ide.disks.dma_write_full_pages            0                       # Number of full page size DMA writes.
system.pc.south_bridge.ide.disks.dma_write_bytes            0                       # Number of bytes transfered via DMA writes.
system.pc.south_bridge.ide.disks.dma_write_txs            0                       # Number of DMA write transactions.
system.ruby.clk_domain.clock                      500                       # Clock period in ticks
system.ruby.delayHist::bucket_size                  4                       # delay histogram for all message
system.ruby.delayHist::max_bucket                  39                       # delay histogram for all message
system.ruby.delayHist::samples               41859295                       # delay histogram for all message
system.ruby.delayHist::mean                  0.224598                       # delay histogram for all message
system.ruby.delayHist::stdev                 1.321841                       # delay histogram for all message
system.ruby.delayHist                    |    40686528     97.20%     97.20% |        2922      0.01%     97.21% |     1168947      2.79%    100.00% |         202      0.00%    100.00% |         663      0.00%    100.00% |          12      0.00%    100.00% |          21      0.00%    100.00% |           0      0.00%    100.00% |           0      0.00%    100.00% |           0      0.00%    100.00% # delay histogram for all message
system.ruby.delayHist::total                 41859295                       # delay histogram for all message
system.ruby.outstanding_req_hist_seqr::bucket_size            1                      
system.ruby.outstanding_req_hist_seqr::max_bucket            9                      
system.ruby.outstanding_req_hist_seqr::samples   2274202442                      
system.ruby.outstanding_req_hist_seqr::mean     1.001962                      
system.ruby.outstanding_req_hist_seqr::gmean     1.001361                      
system.ruby.outstanding_req_hist_seqr::stdev     0.044254                      
system.ruby.outstanding_req_hist_seqr    |           0      0.00%      0.00% |  2269739877     99.80%     99.80% |     4462565      0.20%    100.00% |           0      0.00%    100.00% |           0      0.00%    100.00% |           0      0.00%    100.00% |           0      0.00%    100.00% |           0      0.00%    100.00% |           0      0.00%    100.00% |           0      0.00%    100.00%
system.ruby.outstanding_req_hist_seqr::total   2274202442                      
system.ruby.latency_hist_seqr::bucket_size          256                      
system.ruby.latency_hist_seqr::max_bucket         2559                      
system.ruby.latency_hist_seqr::samples     2274202442                      
[...]
system.ruby.L1Cache_Controller.Data_all_Acks |      106053      9.69%      9.69% |       91614      8.37%     18.06% |      652082     59.59%     77.65% |      244621     22.35%    100.00%
system.ruby.L1Cache_Controller.Data_all_Acks::total      1094370                      
system.ruby.L1Cache_Controller.L0_Ack    |       94626     15.39%     15.39% |       79109     12.87%     28.26% |      285886     46.51%     74.78% |      155044     25.22%    100.00%
system.ruby.L1Cache_Controller.L0_Ack::total       614665                      
system.ruby.L1Cache_Controller.Ack       |       11402     56.87%     56.87% |        2032     10.13%     67.00% |        3966     19.78%     86.78% |        2650     13.22%    100.00%
system.ruby.L1Cache_Controller.Ack::total        20050                      
system.ruby.L1Cache_Controller.Ack_all   |        4935     45.72%     45.72% |        1440     13.34%     59.06% |        2199     20.37%     79.43% |        2220     20.57%    100.00%
system.ruby.L1Cache_Controller.Ack_all::total        10794                      
system.ruby.L1Cache_Controller.WB_Ack    |       90474      2.66%      2.66% |      118746      3.49%      6.14% |     2603058     76.41%     82.55% |      594460     17.45%    100.00%
system.ruby.L1Cache_Controller.WB_Ack::total      3406738                      
system.ruby.L1Cache_Controller.I.Load    |      163879      5.19%      5.19% |      170112      5.38%     10.57% |     2240131     70.90%     81.47% |      585378     18.53%    100.00%
system.ruby.L1Cache_Controller.I.Load::total      3159500                      
system.ruby.L1Cache_Controller.I.Store   |       22537      3.26%      3.26% |       25385      3.67%      6.94% |      509714     73.77%     80.71% |      133271     19.29%    100.00%
system.ruby.L1Cache_Controller.I.Store::total       690907                      
system.ruby.L1Cache_Controller.I.Inv     |        3996     22.00%     22.00% |        4693     25.84%     47.84% |        5157     28.39%     76.24% |        4316     23.76%    100.00%
system.ruby.L1Cache_Controller.I.Inv::total        18162                      
system.ruby.L1Cache_Controller.S.Load    |      123289     10.24%     10.24% |      139457     11.59%     21.83% |      762896     63.38%     85.21% |      178074     14.79%    100.00%
system.ruby.L1Cache_Controller.S.Load::total      1203716                      
system.ruby.L1Cache_Controller.S.Store   |        3104     43.52%     43.52% |        1244     17.44%     60.96% |        1508     21.14%     82.10% |        1277     17.90%    100.00%
system.ruby.L1Cache_Controller.S.Store::total         7133                      
system.ruby.L1Cache_Controller.S.L0_Invalidate_Own |       84108     20.91%     20.91% |       63783     15.86%     36.78% |      142331     35.39%     72.17% |      111927     27.83%    100.00%
system.ruby.L1Cache_Controller.S.L0_Invalidate_Own::total       402149                      
system.ruby.L1Cache_Controller.S.L0_Invalidate_Else |        4375     21.97%     21.97% |        7233     36.32%     58.28% |        2161     10.85%     69.14% |        6147     30.86%    100.00%
system.ruby.L1Cache_Controller.S.L0_Invalidate_Else::total        19916                      
system.ruby.L1Cache_Controller.SS.Load   |        2007     33.01%     33.01% |        2244     36.91%     69.92% |         677     11.13%     81.05% |        1152     18.95%    100.00%
system.ruby.L1Cache_Controller.SS.Load::total         6080                      
system.ruby.L1Cache_Controller.SS.Store  |         951     83.27%     83.27% |         102      8.93%     92.21% |          19      1.66%     93.87% |          70      6.13%    100.00%
system.ruby.L1Cache_Controller.SS.Store::total         1142                      
system.ruby.L1Cache_Controller.SS.Inv    |        5276     21.79%     21.79% |        8201     33.86%     55.65% |        2576     10.64%     66.29% |        8164     33.71%    100.00%
system.ruby.L1Cache_Controller.SS.Inv::total        24217                      
system.ruby.L1Cache_Controller.SS.L1_Replacement |       86331     21.16%     21.16% |       64750     15.87%     37.02% |      143499     35.16%     72.19% |      113494     27.81%    100.00%
system.ruby.L1Cache_Controller.SS.L1_Replacement::total       408074                      
system.ruby.L1Cache_Controller.E.WriteBack |       70473      2.73%      2.73% |       94249      3.65%      6.39% |     1973948     76.54%     82.93% |      440269     17.07%    100.00%
system.ruby.L1Cache_Controller.E.WriteBack::total      2578939                      
system.ruby.L1Cache_Controller.E.L0_Invalidate_Own |        3038      1.97%      1.97% |        4372      2.84%      4.81% |      120688     78.37%     83.18% |       25897     16.82%    100.00%
system.ruby.L1Cache_Controller.E.L0_Invalidate_Own::total       153995                      
system.ruby.L1Cache_Controller.E.L0_Invalidate_Else |         889     27.35%     27.35% |        1355     41.68%     69.02% |         179      5.51%     74.53% |         828     25.47%    100.00%
system.ruby.L1Cache_Controller.E.L0_Invalidate_Else::total         3251                      
system.ruby.L1Cache_Controller.EE.Inv    |         264     35.48%     35.48% |         191     25.67%     61.16% |          28      3.76%     64.92% |         261     35.08%    100.00%
system.ruby.L1Cache_Controller.EE.Inv::total          744                      
system.ruby.L1Cache_Controller.EE.L1_Replacement |        2718      1.80%      1.80% |        4065      2.69%      4.48% |      119977     79.25%     83.73% |       24625     16.27%    100.00%
system.ruby.L1Cache_Controller.EE.L1_Replacement::total       151385                      
system.ruby.L1Cache_Controller.EE.Fwd_GETX |           4     19.05%     19.05% |           2      9.52%     28.57% |           8     38.10%     66.67% |           7     33.33%    100.00%
system.ruby.L1Cache_Controller.EE.Fwd_GETX::total           21                      
system.ruby.L1Cache_Controller.EE.Fwd_GETS |         489     25.26%     25.26% |         968     50.00%     75.26% |         115      5.94%     81.20% |         364     18.80%    100.00%
system.ruby.L1Cache_Controller.EE.Fwd_GETS::total         1936                      
system.ruby.L1Cache_Controller.M.WriteBack |      126715      0.52%      0.52% |      176801      0.73%      1.25% |    20142069     83.22%     84.48% |     3757040     15.52%    100.00%
system.ruby.L1Cache_Controller.M.WriteBack::total     24202625                      
system.ruby.L1Cache_Controller.M.L0_Invalidate_Own |        6680     11.89%     11.89% |        4864      8.66%     20.54% |       26405     46.99%     67.54% |       18241     32.46%    100.00%
system.ruby.L1Cache_Controller.M.L0_Invalidate_Own::total        56190                      
system.ruby.L1Cache_Controller.M.L0_Invalidate_Else |        3097     42.15%     42.15% |        2017     27.45%     69.61% |         456      6.21%     75.81% |        1777     24.19%    100.00%
system.ruby.L1Cache_Controller.M.L0_Invalidate_Else::total         7347                      
system.ruby.L1Cache_Controller.MM.Load   |       81714      0.38%      0.38% |      110050      0.51%      0.89% |    17894721     83.25%     84.15% |     3407906     15.85%    100.00%
system.ruby.L1Cache_Controller.MM.Load::total     21494391                      
system.ruby.L1Cache_Controller.MM.Store  |       28198      1.36%      1.36% |       46887      2.26%      3.62% |     1762965     85.06%     88.68% |      234519     11.32%    100.00%
system.ruby.L1Cache_Controller.MM.Store::total      2072569                      
system.ruby.L1Cache_Controller.MM.Inv    |        3170     38.17%     38.17% |        2633     31.71%     69.88% |         469      5.65%     75.53% |        2032     24.47%    100.00%
system.ruby.L1Cache_Controller.MM.Inv::total         8304                      
system.ruby.L1Cache_Controller.MM.L1_Replacement |       87756      2.70%      2.70% |      114681      3.52%      6.22% |     2483081     76.28%     82.50% |      569835     17.50%    100.00%
system.ruby.L1Cache_Controller.MM.L1_Replacement::total      3255353                      
system.ruby.L1Cache_Controller.MM.Fwd_GETX |         814     35.91%     35.91% |        1007     44.42%     80.33% |         184      8.12%     88.44% |         262     11.56%    100.00%
system.ruby.L1Cache_Controller.MM.Fwd_GETX::total         2267                      
system.ruby.L1Cache_Controller.MM.Fwd_GETS |        5524     35.85%     35.85% |        3286     21.32%     57.17% |        2128     13.81%     70.98% |        4472     29.02%    100.00%
system.ruby.L1Cache_Controller.MM.Fwd_GETS::total        15410                      
system.ruby.L1Cache_Controller.IS.Data_Exclusive |       74427      2.72%      2.72% |       99971      3.65%      6.37% |     2094818     76.56%     82.93% |      466956     17.07%    100.00%
system.ruby.L1Cache_Controller.IS.Data_Exclusive::total      2736172                      
system.ruby.L1Cache_Controller.IS.DataS_fromL1 |        5056     29.15%     29.15% |        3818     22.01%     51.16% |        2273     13.10%     64.26% |        6199     35.74%    100.00%
system.ruby.L1Cache_Controller.IS.DataS_fromL1::total        17346                      
system.ruby.L1Cache_Controller.IS.Data_all_Acks |       84396     20.79%     20.79% |       66323     16.34%     37.12% |      143040     35.23%     72.36% |      112223     27.64%    100.00%
system.ruby.L1Cache_Controller.IS.Data_all_Acks::total       405982                      
system.ruby.L1Cache_Controller.IM.Data   |         880     34.92%     34.92% |          94      3.73%     38.65% |         673     26.71%     65.36% |         873     34.64%    100.00%
system.ruby.L1Cache_Controller.IM.Data::total         2520                      
system.ruby.L1Cache_Controller.IM.Data_all_Acks |       21657      3.15%      3.15% |       25291      3.67%      6.82% |      509042     73.95%     80.77% |      132398     19.23%    100.00%
system.ruby.L1Cache_Controller.IM.Data_all_Acks::total       688388                      
system.ruby.L1Cache_Controller.SM.Inv    |           0      0.00%      0.00% |           0      0.00%      0.00% |           1    100.00%    100.00% |           0      0.00%    100.00%
system.ruby.L1Cache_Controller.SM.Inv::total            1                      
system.ruby.L1Cache_Controller.SM.Ack    |       11402     56.87%     56.87% |        2032     10.13%     67.00% |        3966     19.78%     86.78% |        2650     13.22%    100.00%
system.ruby.L1Cache_Controller.SM.Ack::total        20050                      
system.ruby.L1Cache_Controller.SM.Ack_all |        4935     45.72%     45.72% |        1440     13.34%     59.06% |        2199     20.37%     79.43% |        2220     20.57%    100.00%
system.ruby.L1Cache_Controller.SM.Ack_all::total        10794                      
system.ruby.L1Cache_Controller.M_I.WB_Ack |       90474      2.66%      2.66% |      118746      3.49%      6.14% |     2603058     76.41%     82.55% |      594460     17.45%    100.00%
system.ruby.L1Cache_Controller.M_I.WB_Ack::total      3406738                      
system.ruby.L1Cache_Controller.S_IL0.Store |           0      0.00%      0.00% |           0      0.00%      0.00% |           1    100.00%    100.00% |           0      0.00%    100.00%
system.ruby.L1Cache_Controller.S_IL0.Store::total            1                      
system.ruby.L1Cache_Controller.S_IL0.L0_Invalidate_Own |       84108     20.91%     20.91% |       63783     15.86%     36.78% |      142331     35.39%     72.17% |      111927     27.83%    100.00%
system.ruby.L1Cache_Controller.S_IL0.L0_Invalidate_Own::total       402149                      
system.ruby.L1Cache_Controller.S_IL0.L0_Invalidate_Else |        4375     21.97%     21.97% |        7233     36.32%     58.28% |        2161     10.85%     69.14% |        6147     30.86%    100.00%
system.ruby.L1Cache_Controller.S_IL0.L0_Invalidate_Else::total        19916                      
system.ruby.L1Cache_Controller.S_IL0.L0_Ack |       88483     20.96%     20.96% |       71016     16.83%     37.79% |      144492     34.23%     72.02% |      118074     27.98%    100.00%
system.ruby.L1Cache_Controller.S_IL0.L0_Ack::total       422065                      
system.ruby.L1Cache_Controller.E_IL0.L0_DataAck |         452     14.30%     14.30% |         501     15.85%     30.16% |         739     23.39%     53.54% |        1468     46.46%    100.00%
system.ruby.L1Cache_Controller.E_IL0.L0_DataAck::total         3160                      
system.ruby.L1Cache_Controller.E_IL0.L0_Invalidate_Own |        3038      1.97%      1.97% |        4372      2.84%      4.81% |      120688     78.37%     83.18% |       25897     16.82%    100.00%
system.ruby.L1Cache_Controller.E_IL0.L0_Invalidate_Own::total       153995                      
system.ruby.L1Cache_Controller.E_IL0.L0_Invalidate_Else |         889     27.35%     27.35% |        1355     41.68%     69.02% |         179      5.51%     74.53% |         828     25.47%    100.00%
system.ruby.L1Cache_Controller.E_IL0.L0_Invalidate_Else::total         3251                      
system.ruby.L1Cache_Controller.E_IL0.L0_Ack |        3475      2.26%      2.26% |        5226      3.39%      5.65% |      120128     77.96%     83.61% |       25257     16.39%    100.00%
system.ruby.L1Cache_Controller.E_IL0.L0_Ack::total       154086                      
system.ruby.L1Cache_Controller.M_IL0.L0_DataAck |        7109     28.41%     28.41% |        4014     16.04%     44.45% |        5595     22.36%     66.81% |        8305     33.19%    100.00%
system.ruby.L1Cache_Controller.M_IL0.L0_DataAck::total        25023                      
system.ruby.L1Cache_Controller.M_IL0.L0_Invalidate_Own |        6680     11.89%     11.89% |        4864      8.66%     20.54% |       26405     46.99%     67.54% |       18241     32.46%    100.00%
system.ruby.L1Cache_Controller.M_IL0.L0_Invalidate_Own::total        56190                      
system.ruby.L1Cache_Controller.M_IL0.L0_Invalidate_Else |        3097     42.15%     42.15% |        2017     27.45%     69.61% |         456      6.21%     75.81% |        1777     24.19%    100.00%
system.ruby.L1Cache_Controller.M_IL0.L0_Invalidate_Else::total         7347                      
system.ruby.L1Cache_Controller.M_IL0.L0_Ack |        2668      6.93%      6.93% |        2867      7.44%     14.37% |       21266     55.22%     69.59% |       11713     30.41%    100.00%
system.ruby.L1Cache_Controller.M_IL0.L0_Ack::total        38514                      
system.ruby.L2Cache_Controller.L1_GETS        3159565      0.00%      0.00%
system.ruby.L2Cache_Controller.L1_GETX         690913      0.00%      0.00%
system.ruby.L2Cache_Controller.L1_UPGRADE         8275      0.00%      0.00%
system.ruby.L2Cache_Controller.L1_PUTX        3406738      0.00%      0.00%
system.ruby.L2Cache_Controller.L2_Replacement       833118      0.00%      0.00%
system.ruby.L2Cache_Controller.L2_Replacement_clean       630548      0.00%      0.00%
system.ruby.L2Cache_Controller.Mem_Data       1466263      0.00%      0.00%
system.ruby.L2Cache_Controller.Mem_Ack        1463912      0.00%      0.00%
system.ruby.L2Cache_Controller.WB_Data          13488      0.00%      0.00%
system.ruby.L2Cache_Controller.WB_Data_clean        12162      0.00%      0.00%
system.ruby.L2Cache_Controller.Ack              13642      0.00%      0.00%
system.ruby.L2Cache_Controller.Ack_all           6912      0.00%      0.00%
system.ruby.L2Cache_Controller.Unblock          17346      0.00%      0.00%
system.ruby.L2Cache_Controller.Exclusive_Unblock      3435353      0.00%      0.00%
system.ruby.L2Cache_Controller.MEM_Inv            492      0.00%      0.00%
system.ruby.L2Cache_Controller.NP.L1_GETS       957870      0.00%      0.00%
system.ruby.L2Cache_Controller.NP.L1_GETX       508393      0.00%      0.00%
system.ruby.L2Cache_Controller.SS.L1_GETS       405946      0.00%      0.00%
system.ruby.L2Cache_Controller.SS.L1_GETX         2520      0.00%      0.00%
system.ruby.L2Cache_Controller.SS.L1_UPGRADE         8274      0.00%      0.00%
system.ruby.L2Cache_Controller.SS.L2_Replacement          427      0.00%      0.00%
system.ruby.L2Cache_Controller.SS.L2_Replacement_clean         5741      0.00%      0.00%
system.ruby.L2Cache_Controller.M.L1_GETS      1778320      0.00%      0.00%
system.ruby.L2Cache_Controller.M.L1_GETX       177707      0.00%      0.00%
system.ruby.L2Cache_Controller.M.L2_Replacement       831328      0.00%      0.00%
system.ruby.L2Cache_Controller.M.L2_Replacement_clean       617179      0.00%      0.00%
system.ruby.L2Cache_Controller.M.MEM_Inv          189      0.00%      0.00%
system.ruby.L2Cache_Controller.MT.L1_GETS        17346      0.00%      0.00%
system.ruby.L2Cache_Controller.MT.L1_GETX         2288      0.00%      0.00%
system.ruby.L2Cache_Controller.MT.L1_PUTX      3406738      0.00%      0.00%
system.ruby.L2Cache_Controller.MT.L2_Replacement         1363      0.00%      0.00%
system.ruby.L2Cache_Controller.MT.L2_Replacement_clean         7628      0.00%      0.00%
system.ruby.L2Cache_Controller.MT.MEM_Inv           57      0.00%      0.00%
system.ruby.L2Cache_Controller.M_I.L1_GETX            1      0.00%      0.00%
system.ruby.L2Cache_Controller.M_I.Mem_Ack      1463912      0.00%      0.00%
system.ruby.L2Cache_Controller.M_I.MEM_Inv          189      0.00%      0.00%
system.ruby.L2Cache_Controller.MT_I.WB_Data         1172      0.00%      0.00%
system.ruby.L2Cache_Controller.MT_I.WB_Data_clean          140      0.00%      0.00%
system.ruby.L2Cache_Controller.MT_I.Ack_all          108      0.00%      0.00%
system.ruby.L2Cache_Controller.MT_I.MEM_Inv           57      0.00%      0.00%
system.ruby.L2Cache_Controller.MCT_I.WB_Data         4108      0.00%      0.00%
system.ruby.L2Cache_Controller.MCT_I.WB_Data_clean         2884      0.00%      0.00%
system.ruby.L2Cache_Controller.MCT_I.Ack_all          636      0.00%      0.00%
system.ruby.L2Cache_Controller.I_I.Ack          13120      0.00%      0.00%
system.ruby.L2Cache_Controller.I_I.Ack_all         5741      0.00%      0.00%
system.ruby.L2Cache_Controller.S_I.Ack            522      0.00%      0.00%
system.ruby.L2Cache_Controller.S_I.Ack_all          427      0.00%      0.00%
system.ruby.L2Cache_Controller.ISS.L1_GETS           18      0.00%      0.00%
system.ruby.L2Cache_Controller.ISS.Mem_Data       957852      0.00%      0.00%
system.ruby.L2Cache_Controller.IS.Mem_Data           18      0.00%      0.00%
system.ruby.L2Cache_Controller.IM.Mem_Data       508393      0.00%      0.00%
system.ruby.L2Cache_Controller.SS_MB.L1_GETS           45      0.00%      0.00%
system.ruby.L2Cache_Controller.SS_MB.L1_GETX            2      0.00%      0.00%
system.ruby.L2Cache_Controller.SS_MB.L1_UPGRADE            1      0.00%      0.00%
system.ruby.L2Cache_Controller.SS_MB.Exclusive_Unblock        10794      0.00%      0.00%
system.ruby.L2Cache_Controller.MT_MB.L1_GETS           16      0.00%      0.00%
system.ruby.L2Cache_Controller.MT_MB.L1_GETX            1      0.00%      0.00%
system.ruby.L2Cache_Controller.MT_MB.Exclusive_Unblock      3424559      0.00%      0.00%
system.ruby.L2Cache_Controller.MT_IIB.L1_GETS            4      0.00%      0.00%
system.ruby.L2Cache_Controller.MT_IIB.L1_GETX            1      0.00%      0.00%
system.ruby.L2Cache_Controller.MT_IIB.WB_Data         8203      0.00%      0.00%
system.ruby.L2Cache_Controller.MT_IIB.WB_Data_clean         9123      0.00%      0.00%
system.ruby.L2Cache_Controller.MT_IIB.Unblock           20      0.00%      0.00%
system.ruby.L2Cache_Controller.MT_IB.WB_Data            5      0.00%      0.00%
system.ruby.L2Cache_Controller.MT_IB.WB_Data_clean           15      0.00%      0.00%
system.ruby.L2Cache_Controller.MT_SB.Unblock        17326      0.00%      0.00%

---------- End Simulation Statistics   ----------
