
---------- Begin Simulation Statistics ----------
sim_seconds                                  2.337489                       # Number of seconds simulated
sim_ticks                                2337489234500                       # Number of ticks simulated
final_tick                               54898745699501                       # Number of ticks from beginning of simulation (restored from checkpoints and never reset)
sim_freq                                 1000000000000                       # Frequency of simulated ticks
host_inst_rate                                 135032                       # Simulator instruction rate (inst/s)
host_op_rate                                   244762                       # Simulator op (including micro ops) rate (op/s)
host_tick_rate                              240444055                       # Simulator tick rate (ticks/s)
host_mem_usage                                1848496                       # Number of bytes of host memory used
host_seconds                                  9721.55                       # Real time elapsed on the host
sim_insts                                  1312717589                       # Number of instructions simulated
sim_ops                                    2379463735                       # Number of ops (including micro ops) simulated
system.voltage_domain.voltage                       1                       # Voltage in Volts
system.clk_domain.clock                          1000                       # Clock period in ticks
system.mem_ctrls.bytes_read::ruby.dir_cntrl0     83156352                       # Number of bytes read from this memory
system.mem_ctrls.bytes_read::total           83156352                       # Number of bytes read from this memory
system.mem_ctrls.bytes_written::ruby.dir_cntrl0     47652544                       # Number of bytes written to this memory
system.mem_ctrls.bytes_written::total        47652544                       # Number of bytes written to this memory
system.mem_ctrls.num_reads::ruby.dir_cntrl0      1299318                       # Number of read requests responded to by this memory
system.mem_ctrls.num_reads::total             1299318                       # Number of read requests responded to by this memory
system.mem_ctrls.num_writes::ruby.dir_cntrl0       744571                       # Number of write requests responded to by this memory
system.mem_ctrls.num_writes::total             744571                       # Number of write requests responded to by this memory
system.mem_ctrls.bw_read::ruby.dir_cntrl0     35575074                       # Total read bandwidth from this memory (bytes/s)
system.mem_ctrls.bw_read::total              35575074                       # Total read bandwidth from this memory (bytes/s)
system.mem_ctrls.bw_write::ruby.dir_cntrl0     20386209                       # Write bandwidth from this memory (bytes/s)
system.mem_ctrls.bw_write::total             20386209                       # Write bandwidth from this memory (bytes/s)
system.mem_ctrls.bw_total::ruby.dir_cntrl0     55961283                       # Total bandwidth to/from this memory (bytes/s)
system.mem_ctrls.bw_total::total             55961283                       # Total bandwidth to/from this memory (bytes/s)
system.mem_ctrls.readReqs                     1299318                       # Number of read requests accepted
system.mem_ctrls.writeReqs                     744571                       # Number of write requests accepted
system.mem_ctrls.readBursts                   1299318                       # Number of DRAM read bursts, including those serviced by the write queue
system.mem_ctrls.writeBursts                   744571                       # Number of DRAM write bursts, including those merged in the write queue
system.mem_ctrls.bytesReadDRAM               83093504                       # Total number of bytes read from DRAM
system.mem_ctrls.bytesReadWrQ                   62848                       # Total number of bytes read from write queue
system.mem_ctrls.bytesWritten                47651648                       # Total number of bytes written to DRAM
system.mem_ctrls.bytesReadSys                83156352                       # Total read bytes from the system interface side
system.mem_ctrls.bytesWrittenSys             47652544                       # Total written bytes from the system interface side
system.mem_ctrls.servicedByWrQ                    982                       # Number of DRAM read bursts serviced by the write queue
system.mem_ctrls.mergedWrBursts                     1                       # Number of DRAM write bursts merged with an existing one
system.mem_ctrls.neitherReadNorWriteReqs            0                       # Number of requests that are neither read nor write
system.mem_ctrls.perBankRdBursts::0             81205                       # Per bank write bursts
system.mem_ctrls.perBankRdBursts::1             80189                       # Per bank write bursts
system.mem_ctrls.perBankRdBursts::2             79695                       # Per bank write bursts
system.mem_ctrls.perBankRdBursts::3             78600                       # Per bank write bursts
system.mem_ctrls.perBankRdBursts::4             82401                       # Per bank write bursts
system.mem_ctrls.perBankRdBursts::5             83130                       # Per bank write bursts
system.mem_ctrls.perBankRdBursts::6             83022                       # Per bank write bursts
system.mem_ctrls.perBankRdBursts::7             81253                       # Per bank write bursts
system.mem_ctrls.perBankRdBursts::8             82583                       # Per bank write bursts
system.mem_ctrls.perBankRdBursts::9             81873                       # Per bank write bursts
system.mem_ctrls.perBankRdBursts::10            77632                       # Per bank write bursts
system.mem_ctrls.perBankRdBursts::11            82575                       # Per bank write bursts
system.mem_ctrls.perBankRdBursts::12            81861                       # Per bank write bursts
system.mem_ctrls.perBankRdBursts::13            79167                       # Per bank write bursts
system.mem_ctrls.perBankRdBursts::14            81766                       # Per bank write bursts
system.mem_ctrls.perBankRdBursts::15            81384                       # Per bank write bursts
system.mem_ctrls.perBankWrBursts::0             46597                       # Per bank write bursts
system.mem_ctrls.perBankWrBursts::1             45068                       # Per bank write bursts
system.mem_ctrls.perBankWrBursts::2             45813                       # Per bank write bursts
system.mem_ctrls.perBankWrBursts::3             45775                       # Per bank write bursts
system.mem_ctrls.perBankWrBursts::4             46901                       # Per bank write bursts
system.mem_ctrls.perBankWrBursts::5             47930                       # Per bank write bursts
system.mem_ctrls.perBankWrBursts::6             47753                       # Per bank write bursts
system.mem_ctrls.perBankWrBursts::7             46691                       # Per bank write bursts
system.mem_ctrls.perBankWrBursts::8             47177                       # Per bank write bursts
system.mem_ctrls.perBankWrBursts::9             47372                       # Per bank write bursts
system.mem_ctrls.perBankWrBursts::10            45291                       # Per bank write bursts
system.mem_ctrls.perBankWrBursts::11            46647                       # Per bank write bursts
system.mem_ctrls.perBankWrBursts::12            47084                       # Per bank write bursts
system.mem_ctrls.perBankWrBursts::13            45599                       # Per bank write bursts
system.mem_ctrls.perBankWrBursts::14            46071                       # Per bank write bursts
system.mem_ctrls.perBankWrBursts::15            46788                       # Per bank write bursts
system.mem_ctrls.numRdRetry                         0                       # Number of times read queue was full causing retry
system.mem_ctrls.numWrRetry                         0                       # Number of times write queue was full causing retry
system.mem_ctrls.totGap                  2337489156000                       # Total gap between requests
system.mem_ctrls.readPktSize::0                     0                       # Read request sizes (log2)
system.mem_ctrls.readPktSize::1                     0                       # Read request sizes (log2)
system.mem_ctrls.readPktSize::2                     0                       # Read request sizes (log2)
system.mem_ctrls.readPktSize::3                     0                       # Read request sizes (log2)
system.mem_ctrls.readPktSize::4                     0                       # Read request sizes (log2)
system.mem_ctrls.readPktSize::5                     0                       # Read request sizes (log2)
system.mem_ctrls.readPktSize::6               1299318                       # Read request sizes (log2)
system.mem_ctrls.writePktSize::0                    0                       # Write request sizes (log2)
system.mem_ctrls.writePktSize::1                    0                       # Write request sizes (log2)
system.mem_ctrls.writePktSize::2                    0                       # Write request sizes (log2)
system.mem_ctrls.writePktSize::3                    0                       # Write request sizes (log2)
system.mem_ctrls.writePktSize::4                    0                       # Write request sizes (log2)
system.mem_ctrls.writePktSize::5                    0                       # Write request sizes (log2)
system.mem_ctrls.writePktSize::6               744571                       # Write request sizes (log2)
system.mem_ctrls.rdQLenPdf::0                 1297270                       # What read queue length does an incoming req see
system.mem_ctrls.rdQLenPdf::1                    1066                       # What read queue length does an incoming req see
system.mem_ctrls.rdQLenPdf::2                       0                       # What read queue length does an incoming req see
system.mem_ctrls.rdQLenPdf::3                       0                       # What read queue length does an incoming req see
system.mem_ctrls.rdQLenPdf::4                       0                       # What read queue length does an incoming req see
system.mem_ctrls.rdQLenPdf::5                       0                       # What read queue length does an incoming req see
system.mem_ctrls.rdQLenPdf::6                       0                       # What read queue length does an incoming req see
system.mem_ctrls.rdQLenPdf::7                       0                       # What read queue length does an incoming req see
system.mem_ctrls.rdQLenPdf::8                       0                       # What read queue length does an incoming req see
system.mem_ctrls.rdQLenPdf::9                       0                       # What read queue length does an incoming req see
system.mem_ctrls.rdQLenPdf::10                      0                       # What read queue length does an incoming req see
system.mem_ctrls.rdQLenPdf::11                      0                       # What read queue length does an incoming req see
system.mem_ctrls.rdQLenPdf::12                      0                       # What read queue length does an incoming req see
system.mem_ctrls.rdQLenPdf::13                      0                       # What read queue length does an incoming req see
system.mem_ctrls.rdQLenPdf::14                      0                       # What read queue length does an incoming req see
system.mem_ctrls.rdQLenPdf::15                      0                       # What read queue length does an incoming req see
system.mem_ctrls.rdQLenPdf::16                      0                       # What read queue length does an incoming req see
system.mem_ctrls.rdQLenPdf::17                      0                       # What read queue length does an incoming req see
system.mem_ctrls.rdQLenPdf::18                      0                       # What read queue length does an incoming req see
system.mem_ctrls.rdQLenPdf::19                      0                       # What read queue length does an incoming req see
system.mem_ctrls.rdQLenPdf::20                      0                       # What read queue length does an incoming req see
system.mem_ctrls.rdQLenPdf::21                      0                       # What read queue length does an incoming req see
system.mem_ctrls.rdQLenPdf::22                      0                       # What read queue length does an incoming req see
system.mem_ctrls.rdQLenPdf::23                      0                       # What read queue length does an incoming req see
system.mem_ctrls.rdQLenPdf::24                      0                       # What read queue length does an incoming req see
system.mem_ctrls.rdQLenPdf::25                      0                       # What read queue length does an incoming req see
system.mem_ctrls.rdQLenPdf::26                      0                       # What read queue length does an incoming req see
system.mem_ctrls.rdQLenPdf::27                      0                       # What read queue length does an incoming req see
system.mem_ctrls.rdQLenPdf::28                      0                       # What read queue length does an incoming req see
system.mem_ctrls.rdQLenPdf::29                      0                       # What read queue length does an incoming req see
system.mem_ctrls.rdQLenPdf::30                      0                       # What read queue length does an incoming req see
system.mem_ctrls.rdQLenPdf::31                      0                       # What read queue length does an incoming req see
system.mem_ctrls.wrQLenPdf::0                       0                       # What write queue length does an incoming req see
system.mem_ctrls.wrQLenPdf::1                       0                       # What write queue length does an incoming req see
system.mem_ctrls.wrQLenPdf::2                       0                       # What write queue length does an incoming req see
system.mem_ctrls.wrQLenPdf::3                       0                       # What write queue length does an incoming req see
system.mem_ctrls.wrQLenPdf::4                       0                       # What write queue length does an incoming req see
system.mem_ctrls.wrQLenPdf::5                       0                       # What write queue length does an incoming req see
system.mem_ctrls.wrQLenPdf::6                       0                       # What write queue length does an incoming req see
system.mem_ctrls.wrQLenPdf::7                       0                       # What write queue length does an incoming req see
system.mem_ctrls.wrQLenPdf::8                       0                       # What write queue length does an incoming req see
system.mem_ctrls.wrQLenPdf::9                       0                       # What write queue length does an incoming req see
system.mem_ctrls.wrQLenPdf::10                      0                       # What write queue length does an incoming req see
system.mem_ctrls.wrQLenPdf::11                      0                       # What write queue length does an incoming req see
system.mem_ctrls.wrQLenPdf::12                      0                       # What write queue length does an incoming req see
system.mem_ctrls.wrQLenPdf::13                      0                       # What write queue length does an incoming req see
system.mem_ctrls.wrQLenPdf::14                      0                       # What write queue length does an incoming req see
system.mem_ctrls.wrQLenPdf::15                  25459                       # What write queue length does an incoming req see
system.mem_ctrls.wrQLenPdf::16                  26911                       # What write queue length does an incoming req see
system.mem_ctrls.wrQLenPdf::17                  34378                       # What write queue length does an incoming req see
system.mem_ctrls.wrQLenPdf::18                  44093                       # What write queue length does an incoming req see
system.mem_ctrls.wrQLenPdf::19                  44481                       # What write queue length does an incoming req see
system.mem_ctrls.wrQLenPdf::20                  45053                       # What write queue length does an incoming req see
system.mem_ctrls.wrQLenPdf::21                  45211                       # What write queue length does an incoming req see
system.mem_ctrls.wrQLenPdf::22                  44427                       # What write queue length does an incoming req see
system.mem_ctrls.wrQLenPdf::23                  44003                       # What write queue length does an incoming req see
system.mem_ctrls.wrQLenPdf::24                  43767                       # What write queue length does an incoming req see
system.mem_ctrls.wrQLenPdf::25                  43545                       # What write queue length does an incoming req see
system.mem_ctrls.wrQLenPdf::26                  43431                       # What write queue length does an incoming req see
system.mem_ctrls.wrQLenPdf::27                  43455                       # What write queue length does an incoming req see
system.mem_ctrls.wrQLenPdf::28                  43334                       # What write queue length does an incoming req see
system.mem_ctrls.wrQLenPdf::29                  43369                       # What write queue length does an incoming req see
system.mem_ctrls.wrQLenPdf::30                  43212                       # What write queue length does an incoming req see
system.mem_ctrls.wrQLenPdf::31                  43188                       # What write queue length does an incoming req see
system.mem_ctrls.wrQLenPdf::32                  43199                       # What write queue length does an incoming req see
system.mem_ctrls.wrQLenPdf::33                     46                       # What write queue length does an incoming req see
system.mem_ctrls.wrQLenPdf::34                      6                       # What write queue length does an incoming req see
system.mem_ctrls.wrQLenPdf::35                      1                       # What write queue length does an incoming req see
system.mem_ctrls.wrQLenPdf::36                      1                       # What write queue length does an incoming req see
system.mem_ctrls.wrQLenPdf::37                      0                       # What write queue length does an incoming req see
system.mem_ctrls.wrQLenPdf::38                      0                       # What write queue length does an incoming req see
system.mem_ctrls.wrQLenPdf::39                      0                       # What write queue length does an incoming req see
system.mem_ctrls.wrQLenPdf::40                      0                       # What write queue length does an incoming req see
system.mem_ctrls.wrQLenPdf::41                      0                       # What write queue length does an incoming req see
system.mem_ctrls.wrQLenPdf::42                      0                       # What write queue length does an incoming req see
system.mem_ctrls.wrQLenPdf::43                      0                       # What write queue length does an incoming req see
system.mem_ctrls.wrQLenPdf::44                      0                       # What write queue length does an incoming req see
system.mem_ctrls.wrQLenPdf::45                      0                       # What write queue length does an incoming req see
system.mem_ctrls.wrQLenPdf::46                      0                       # What write queue length does an incoming req see
system.mem_ctrls.wrQLenPdf::47                      0                       # What write queue length does an incoming req see
system.mem_ctrls.wrQLenPdf::48                      0                       # What write queue length does an incoming req see
system.mem_ctrls.wrQLenPdf::49                      0                       # What write queue length does an incoming req see
system.mem_ctrls.wrQLenPdf::50                      0                       # What write queue length does an incoming req see
system.mem_ctrls.wrQLenPdf::51                      0                       # What write queue length does an incoming req see
system.mem_ctrls.wrQLenPdf::52                      0                       # What write queue length does an incoming req see
system.mem_ctrls.wrQLenPdf::53                      0                       # What write queue length does an incoming req see
system.mem_ctrls.wrQLenPdf::54                      0                       # What write queue length does an incoming req see
system.mem_ctrls.wrQLenPdf::55                      0                       # What write queue length does an incoming req see
system.mem_ctrls.wrQLenPdf::56                      0                       # What write queue length does an incoming req see
system.mem_ctrls.wrQLenPdf::57                      0                       # What write queue length does an incoming req see
system.mem_ctrls.wrQLenPdf::58                      0                       # What write queue length does an incoming req see
system.mem_ctrls.wrQLenPdf::59                      0                       # What write queue length does an incoming req see
system.mem_ctrls.wrQLenPdf::60                      0                       # What write queue length does an incoming req see
system.mem_ctrls.wrQLenPdf::61                      0                       # What write queue length does an incoming req see
system.mem_ctrls.wrQLenPdf::62                      0                       # What write queue length does an incoming req see
system.mem_ctrls.wrQLenPdf::63                      0                       # What write queue length does an incoming req see
system.mem_ctrls.bytesPerActivate::samples       861615                       # Bytes accessed per row activation
system.mem_ctrls.bytesPerActivate::mean    151.744211                       # Bytes accessed per row activation
system.mem_ctrls.bytesPerActivate::gmean   104.610634                       # Bytes accessed per row activation
system.mem_ctrls.bytesPerActivate::stdev   191.609270                       # Bytes accessed per row activation
system.mem_ctrls.bytesPerActivate::0-127       525664     61.01%     61.01% # Bytes accessed per row activation
system.mem_ctrls.bytesPerActivate::128-255       197928     22.97%     83.98% # Bytes accessed per row activation
system.mem_ctrls.bytesPerActivate::256-383        77802      9.03%     93.01% # Bytes accessed per row activation
system.mem_ctrls.bytesPerActivate::384-511        12265      1.42%     94.43% # Bytes accessed per row activation
system.mem_ctrls.bytesPerActivate::512-639         8468      0.98%     95.42% # Bytes accessed per row activation
system.mem_ctrls.bytesPerActivate::640-767         6570      0.76%     96.18% # Bytes accessed per row activation
system.mem_ctrls.bytesPerActivate::768-895         6032      0.70%     96.88% # Bytes accessed per row activation
system.mem_ctrls.bytesPerActivate::896-1023         4645      0.54%     97.42% # Bytes accessed per row activation
system.mem_ctrls.bytesPerActivate::1024-1151        22241      2.58%    100.00% # Bytes accessed per row activation
system.mem_ctrls.bytesPerActivate::total       861615                       # Bytes accessed per row activation
system.mem_ctrls.rdPerTurnAround::samples        43186                       # Reads before turning the bus around for writes
system.mem_ctrls.rdPerTurnAround::mean      30.063030                       # Reads before turning the bus around for writes
system.mem_ctrls.rdPerTurnAround::stdev     35.159102                       # Reads before turning the bus around for writes
system.mem_ctrls.rdPerTurnAround::0-255         43118     99.84%     99.84% # Reads before turning the bus around for writes
system.mem_ctrls.rdPerTurnAround::256-511           58      0.13%     99.98% # Reads before turning the bus around for writes
system.mem_ctrls.rdPerTurnAround::512-767            4      0.01%     99.99% # Reads before turning the bus around for writes
system.mem_ctrls.rdPerTurnAround::768-1023            3      0.01%     99.99% # Reads before turning the bus around for writes
system.mem_ctrls.rdPerTurnAround::1024-1279            1      0.00%    100.00% # Reads before turning the bus around for writes
system.mem_ctrls.rdPerTurnAround::1280-1535            1      0.00%    100.00% # Reads before turning the bus around for writes
system.mem_ctrls.rdPerTurnAround::4864-5119            1      0.00%    100.00% # Reads before turning the bus around for writes
system.mem_ctrls.rdPerTurnAround::total         43186                       # Reads before turning the bus around for writes
system.mem_ctrls.wrPerTurnAround::samples        43186                       # Writes before turning the bus around for reads
system.mem_ctrls.wrPerTurnAround::mean      17.240703                       # Writes before turning the bus around for reads
system.mem_ctrls.wrPerTurnAround::gmean     17.210920                       # Writes before turning the bus around for reads
system.mem_ctrls.wrPerTurnAround::stdev      1.009219                       # Writes before turning the bus around for reads
system.mem_ctrls.wrPerTurnAround::16            16342     37.84%     37.84% # Writes before turning the bus around for reads
system.mem_ctrls.wrPerTurnAround::17             1274      2.95%     40.79% # Writes before turning the bus around for reads
system.mem_ctrls.wrPerTurnAround::18            24726     57.25%     98.05% # Writes before turning the bus around for reads
system.mem_ctrls.wrPerTurnAround::19              641      1.48%     99.53% # Writes before turning the bus around for reads
system.mem_ctrls.wrPerTurnAround::20              136      0.31%     99.84% # Writes before turning the bus around for reads
system.mem_ctrls.wrPerTurnAround::21               35      0.08%     99.93% # Writes before turning the bus around for reads
system.mem_ctrls.wrPerTurnAround::22               21      0.05%     99.97% # Writes before turning the bus around for reads
system.mem_ctrls.wrPerTurnAround::23                7      0.02%     99.99% # Writes before turning the bus around for reads
system.mem_ctrls.wrPerTurnAround::24                1      0.00%     99.99% # Writes before turning the bus around for reads
system.mem_ctrls.wrPerTurnAround::25                1      0.00%    100.00% # Writes before turning the bus around for reads
system.mem_ctrls.wrPerTurnAround::26                1      0.00%    100.00% # Writes before turning the bus around for reads
system.mem_ctrls.wrPerTurnAround::27                1      0.00%    100.00% # Writes before turning the bus around for reads
system.mem_ctrls.wrPerTurnAround::total         43186                       # Writes before turning the bus around for reads
system.mem_ctrls.totQLat                  10994324990                       # Total ticks spent queuing
system.mem_ctrls.totMemAccLat             35338124990                       # Total ticks spent from burst creation until serviced by the DRAM
system.mem_ctrls.totBusLat                 6491680000                       # Total ticks spent in databus transfers
system.mem_ctrls.avgQLat                      8468.01                       # Average queueing delay per DRAM burst
system.mem_ctrls.avgBusLat                    5000.00                       # Average bus latency per DRAM burst
system.mem_ctrls.avgMemAccLat                27218.01                       # Average memory access latency per DRAM burst
system.mem_ctrls.avgRdBW                        35.55                       # Average DRAM read bandwidth in MiByte/s
system.mem_ctrls.avgWrBW                        20.39                       # Average achieved write bandwidth in MiByte/s
system.mem_ctrls.avgRdBWSys                     35.58                       # Average system read bandwidth in MiByte/s
system.mem_ctrls.avgWrBWSys                     20.39                       # Average system write bandwidth in MiByte/s
system.mem_ctrls.peakBW                      12800.00                       # Theoretical peak bandwidth in MiByte/s
system.mem_ctrls.busUtil                         0.44                       # Data bus utilization in percentage
system.mem_ctrls.busUtilRead                     0.28                       # Data bus utilization in percentage for reads
system.mem_ctrls.busUtilWrite                    0.16                       # Data bus utilization in percentage for writes
system.mem_ctrls.avgRdQLen                       1.00                       # Average read queue length when enqueuing
system.mem_ctrls.avgWrQLen                      24.55                       # Average write queue length when enqueuing
system.mem_ctrls.readRowHits                   984560                       # Number of row buffer hits during reads
system.mem_ctrls.writeRowHits                  196716                       # Number of row buffer hits during writes
system.mem_ctrls.readRowHitRate                 75.83                       # Row buffer hit rate for reads
system.mem_ctrls.writeRowHitRate                26.42                       # Row buffer hit rate for writes
system.mem_ctrls.avgGap                    1143647.80                       # Average gap between requests
system.mem_ctrls.pageHitRate                    57.82                       # Row buffer hit rate, read and write combined
system.mem_ctrls_0.actEnergy               3313744560                       # Energy for activate commands per rank (pJ)
system.mem_ctrls_0.preEnergy               1808094750                       # Energy for precharge commands per rank (pJ)
system.mem_ctrls_0.readEnergy              5231538000                       # Energy for read commands per rank (pJ)
system.mem_ctrls_0.writeEnergy             2437672320                       # Energy for write commands per rank (pJ)
system.mem_ctrls_0.refreshEnergy         153385764480                       # Energy for refresh commands per rank (pJ)
system.mem_ctrls_0.actBackEnergy         321761857590                       # Energy for active background per rank (pJ)
system.mem_ctrls_0.preBackEnergy         1126790086500                       # Energy for precharge background per rank (pJ)
system.mem_ctrls_0.totalEnergy           1614728758200                       # Total energy per rank (pJ)
system.mem_ctrls_0.averagePower            687.588068                       # Core power per rank (mW)
system.mem_ctrls_0.memoryStateTime::IDLE 1868585228251                       # Time in different power states
system.mem_ctrls_0.memoryStateTime::REF   78054080000                       # Time in different power states
system.mem_ctrls_0.memoryStateTime::PRE_PDN            0                       # Time in different power states
system.mem_ctrls_0.memoryStateTime::ACT  390855738249                       # Time in different power states
system.mem_ctrls_0.memoryStateTime::ACT_PDN            0                       # Time in different power states
system.mem_ctrls_1.actEnergy               3290263200                       # Energy for activate commands per rank (pJ)
system.mem_ctrls_1.preEnergy               1795282500                       # Energy for precharge commands per rank (pJ)
system.mem_ctrls_1.readEnergy              5210813400                       # Energy for read commands per rank (pJ)
system.mem_ctrls_1.writeEnergy             2433097440                       # Energy for write commands per rank (pJ)
system.mem_ctrls_1.refreshEnergy         153385764480                       # Energy for refresh commands per rank (pJ)
system.mem_ctrls_1.actBackEnergy         321725808225                       # Energy for active background per rank (pJ)
system.mem_ctrls_1.preBackEnergy         1126821708750                       # Energy for precharge background per rank (pJ)
system.mem_ctrls_1.totalEnergy           1614662737995                       # Total energy per rank (pJ)
system.mem_ctrls_1.averagePower            687.559955                       # Core power per rank (mW)
system.mem_ctrls_1.memoryStateTime::IDLE 1868332915250                       # Time in different power states
system.mem_ctrls_1.memoryStateTime::REF   78054080000                       # Time in different power states
system.mem_ctrls_1.memoryStateTime::PRE_PDN            0                       # Time in different power states
system.mem_ctrls_1.memoryStateTime::ACT  391107634000                       # Time in different power states
system.mem_ctrls_1.memoryStateTime::ACT_PDN            0                       # Time in different power states
system.cpu_voltage_domain.voltage                   1                       # Voltage in Volts
system.cpu_clk_domain.clock                       500                       # Clock period in ticks
system.cpu0.apic_clk_domain.clock                8000                       # Clock period in ticks
system.cpu0.numCycles                      4676948169                       # number of cpu cycles simulated
system.cpu0.numWorkItemsStarted                     0                       # number of work items this cpu started
system.cpu0.numWorkItemsCompleted                   0                       # number of work items this cpu completed
system.cpu0.kern.inst.arm                           0                       # number of arm instructions executed
system.cpu0.kern.inst.quiesce                       0                       # number of quiesce instructions executed
system.cpu0.committedInsts                    3802345                       # Number of instructions committed
system.cpu0.committedOps                      7877280                       # Number of ops (including micro ops) committed
system.cpu0.num_int_alu_accesses              7658886                       # Number of integer alu accesses
system.cpu0.num_fp_alu_accesses                   372                       # Number of float alu accesses
system.cpu0.num_func_calls                     185006                       # number of times a function call or return occured
system.cpu0.num_conditional_control_insts       598312                       # number of instructions that are conditional controls
system.cpu0.num_int_insts                     7658886                       # number of integer instructions
system.cpu0.num_fp_insts                          372                       # number of float instructions
system.cpu0.num_int_register_reads           14976472                       # number of times the integer registers were read
system.cpu0.num_int_register_writes           6315192                       # number of times the integer registers were written
system.cpu0.num_fp_register_reads                 596                       # number of times the floating registers were read
system.cpu0.num_fp_register_writes                261                       # number of times the floating registers were written
system.cpu0.num_cc_register_reads             4677524                       # number of times the CC registers were read
system.cpu0.num_cc_register_writes            2905885                       # number of times the CC registers were written
system.cpu0.num_mem_refs                      1618007                       # number of memory refs
system.cpu0.num_load_insts                    1000640                       # Number of load instructions
system.cpu0.num_store_insts                    617367                       # Number of store instructions
system.cpu0.num_idle_cycles              4659594000.295692                       # Number of idle cycles
system.cpu0.num_busy_cycles              17354168.704308                       # Number of busy cycles
system.cpu0.not_idle_fraction                0.003711                       # Percentage of non-idle cycles
system.cpu0.idle_fraction                    0.996289                       # Percentage of idle cycles
system.cpu0.Branches                           846802                       # Number of branches fetched
system.cpu0.op_class::No_OpClass                78984      1.00%      1.00% # Class of executed instruction
system.cpu0.op_class::IntAlu                  6146596     78.03%     79.03% # Class of executed instruction
system.cpu0.op_class::IntMult                    8673      0.11%     79.14% # Class of executed instruction
system.cpu0.op_class::IntDiv                    24863      0.32%     79.46% # Class of executed instruction
system.cpu0.op_class::FloatAdd                    244      0.00%     79.46% # Class of executed instruction
system.cpu0.op_class::FloatCmp                      0      0.00%     79.46% # Class of executed instruction
system.cpu0.op_class::FloatCvt                      0      0.00%     79.46% # Class of executed instruction
system.cpu0.op_class::FloatMult                     0      0.00%     79.46% # Class of executed instruction
system.cpu0.op_class::FloatDiv                      0      0.00%     79.46% # Class of executed instruction
system.cpu0.op_class::FloatSqrt                     0      0.00%     79.46% # Class of executed instruction
system.cpu0.op_class::SimdAdd                       0      0.00%     79.46% # Class of executed instruction
system.cpu0.op_class::SimdAddAcc                    0      0.00%     79.46% # Class of executed instruction
system.cpu0.op_class::SimdAlu                       0      0.00%     79.46% # Class of executed instruction
system.cpu0.op_class::SimdCmp                       0      0.00%     79.46% # Class of executed instruction
system.cpu0.op_class::SimdCvt                       0      0.00%     79.46% # Class of executed instruction
system.cpu0.op_class::SimdMisc                      0      0.00%     79.46% # Class of executed instruction
system.cpu0.op_class::SimdMult                      0      0.00%     79.46% # Class of executed instruction
system.cpu0.op_class::SimdMultAcc                   0      0.00%     79.46% # Class of executed instruction
system.cpu0.op_class::SimdShift                     0      0.00%     79.46% # Class of executed instruction
system.cpu0.op_class::SimdShiftAcc                  0      0.00%     79.46% # Class of executed instruction
system.cpu0.op_class::SimdSqrt                      0      0.00%     79.46% # Class of executed instruction
system.cpu0.op_class::SimdFloatAdd                  0      0.00%     79.46% # Class of executed instruction
system.cpu0.op_class::SimdFloatAlu                  0      0.00%     79.46% # Class of executed instruction
system.cpu0.op_class::SimdFloatCmp                  0      0.00%     79.46% # Class of executed instruction
system.cpu0.op_class::SimdFloatCvt                  0      0.00%     79.46% # Class of executed instruction
system.cpu0.op_class::SimdFloatDiv                  0      0.00%     79.46% # Class of executed instruction
system.cpu0.op_class::SimdFloatMisc                 0      0.00%     79.46% # Class of executed instruction
system.cpu0.op_class::SimdFloatMult                 0      0.00%     79.46% # Class of executed instruction
system.cpu0.op_class::SimdFloatMultAcc              0      0.00%     79.46% # Class of executed instruction
system.cpu0.op_class::SimdFloatSqrt                 0      0.00%     79.46% # Class of executed instruction
system.cpu0.op_class::MemRead                 1000640     12.70%     92.16% # Class of executed instruction
system.cpu0.op_class::MemWrite                 617367      7.84%    100.00% # Class of executed instruction
system.cpu0.op_class::IprAccess                     0      0.00%    100.00% # Class of executed instruction
system.cpu0.op_class::InstPrefetch                  0      0.00%    100.00% # Class of executed instruction
system.cpu0.op_class::total                   7877367                       # Class of executed instruction
system.cpu1.apic_clk_domain.clock                8000                       # Clock period in ticks
system.cpu1.numCycles                      4673737890                       # number of cpu cycles simulated
system.cpu1.numWorkItemsStarted                     0                       # number of work items this cpu started
system.cpu1.numWorkItemsCompleted                   0                       # number of work items this cpu completed
system.cpu1.kern.inst.arm                           0                       # number of arm instructions executed
system.cpu1.kern.inst.quiesce                       0                       # number of quiesce instructions executed
system.cpu1.committedInsts                 1297718991                       # Number of instructions committed
system.cpu1.committedOps                   2349169644                       # Number of ops (including micro ops) committed
system.cpu1.num_int_alu_accesses           1507193101                       # Number of integer alu accesses
system.cpu1.num_fp_alu_accesses            1130300518                       # Number of float alu accesses
system.cpu1.num_func_calls                     802131                       # number of times a function call or return occured
system.cpu1.num_conditional_control_insts    160945858                       # number of instructions that are conditional controls
system.cpu1.num_int_insts                  1507193101                       # number of integer instructions
system.cpu1.num_fp_insts                   1130300518                       # number of float instructions
system.cpu1.num_int_register_reads         2940973809                       # number of times the integer registers were read
system.cpu1.num_int_register_writes        1034174565                       # number of times the integer registers were written
system.cpu1.num_fp_register_reads          1382500686                       # number of times the floating registers were read
system.cpu1.num_fp_register_writes         1075410587                       # number of times the floating registers were written
system.cpu1.num_cc_register_reads           939441288                       # number of times the CC registers were read
system.cpu1.num_cc_register_writes          528249146                       # number of times the CC registers were written
system.cpu1.num_mem_refs                    388391697                       # number of memory refs
system.cpu1.num_load_insts                  349993637                       # Number of load instructions
system.cpu1.num_store_insts                  38398060                       # Number of store instructions
system.cpu1.num_idle_cycles              21380819.759472                       # Number of idle cycles
system.cpu1.num_busy_cycles              4652357070.240528                       # Number of busy cycles
system.cpu1.not_idle_fraction                0.995425                       # Percentage of non-idle cycles
system.cpu1.idle_fraction                    0.004575                       # Percentage of idle cycles
system.cpu1.Branches                        166340323                       # Number of branches fetched
system.cpu1.op_class::No_OpClass              3904157      0.17%      0.17% # Class of executed instruction
system.cpu1.op_class::IntAlu               1229176304     52.32%     52.49% # Class of executed instruction
system.cpu1.op_class::IntMult                 4268441      0.18%     52.67% # Class of executed instruction
system.cpu1.op_class::IntDiv                      938      0.00%     52.67% # Class of executed instruction
system.cpu1.op_class::FloatAdd              723444434     30.80%     83.47% # Class of executed instruction
system.cpu1.op_class::FloatCmp                      0      0.00%     83.47% # Class of executed instruction
system.cpu1.op_class::FloatCvt                      0      0.00%     83.47% # Class of executed instruction
system.cpu1.op_class::FloatMult                     0      0.00%     83.47% # Class of executed instruction
system.cpu1.op_class::FloatDiv                      0      0.00%     83.47% # Class of executed instruction
system.cpu1.op_class::FloatSqrt                     0      0.00%     83.47% # Class of executed instruction
system.cpu1.op_class::SimdAdd                       0      0.00%     83.47% # Class of executed instruction
system.cpu1.op_class::SimdAddAcc                    0      0.00%     83.47% # Class of executed instruction
system.cpu1.op_class::SimdAlu                       0      0.00%     83.47% # Class of executed instruction
system.cpu1.op_class::SimdCmp                       0      0.00%     83.47% # Class of executed instruction
system.cpu1.op_class::SimdCvt                       0      0.00%     83.47% # Class of executed instruction
system.cpu1.op_class::SimdMisc                      0      0.00%     83.47% # Class of executed instruction
system.cpu1.op_class::SimdMult                      0      0.00%     83.47% # Class of executed instruction
system.cpu1.op_class::SimdMultAcc                   0      0.00%     83.47% # Class of executed instruction
system.cpu1.op_class::SimdShift                     0      0.00%     83.47% # Class of executed instruction
system.cpu1.op_class::SimdShiftAcc                  0      0.00%     83.47% # Class of executed instruction
system.cpu1.op_class::SimdSqrt                      0      0.00%     83.47% # Class of executed instruction
system.cpu1.op_class::SimdFloatAdd                  0      0.00%     83.47% # Class of executed instruction
system.cpu1.op_class::SimdFloatAlu                  0      0.00%     83.47% # Class of executed instruction
system.cpu1.op_class::SimdFloatCmp                  0      0.00%     83.47% # Class of executed instruction
system.cpu1.op_class::SimdFloatCvt                  0      0.00%     83.47% # Class of executed instruction
system.cpu1.op_class::SimdFloatDiv                  0      0.00%     83.47% # Class of executed instruction
system.cpu1.op_class::SimdFloatMisc                 0      0.00%     83.47% # Class of executed instruction
system.cpu1.op_class::SimdFloatMult                 0      0.00%     83.47% # Class of executed instruction
system.cpu1.op_class::SimdFloatMultAcc              0      0.00%     83.47% # Class of executed instruction
system.cpu1.op_class::SimdFloatSqrt                 0      0.00%     83.47% # Class of executed instruction
system.cpu1.op_class::MemRead               349993637     14.90%     98.37% # Class of executed instruction
system.cpu1.op_class::MemWrite               38398060      1.63%    100.00% # Class of executed instruction
system.cpu1.op_class::IprAccess                     0      0.00%    100.00% # Class of executed instruction
system.cpu1.op_class::InstPrefetch                  0      0.00%    100.00% # Class of executed instruction
system.cpu1.op_class::total                2349185971                       # Class of executed instruction
system.cpu2.apic_clk_domain.clock                8000                       # Clock period in ticks
system.cpu2.numCycles                      4673220300                       # number of cpu cycles simulated
system.cpu2.numWorkItemsStarted                     0                       # number of work items this cpu started
system.cpu2.numWorkItemsCompleted                   0                       # number of work items this cpu completed
system.cpu2.kern.inst.arm                           0                       # number of arm instructions executed
system.cpu2.kern.inst.quiesce                       0                       # number of quiesce instructions executed
system.cpu2.committedInsts                    4665102                       # Number of instructions committed
system.cpu2.committedOps                      9387422                       # Number of ops (including micro ops) committed
system.cpu2.num_int_alu_accesses              9218680                       # Number of integer alu accesses
system.cpu2.num_fp_alu_accesses                  1778                       # Number of float alu accesses
system.cpu2.num_func_calls                     242516                       # number of times a function call or return occured
system.cpu2.num_conditional_control_insts       808293                       # number of instructions that are conditional controls
system.cpu2.num_int_insts                     9218680                       # number of integer instructions
system.cpu2.num_fp_insts                         1778                       # number of float instructions
system.cpu2.num_int_register_reads           18235056                       # number of times the integer registers were read
system.cpu2.num_int_register_writes           7504914                       # number of times the integer registers were written
system.cpu2.num_fp_register_reads                2988                       # number of times the floating registers were read
system.cpu2.num_fp_register_writes               1416                       # number of times the floating registers were written
system.cpu2.num_cc_register_reads             6037069                       # number of times the CC registers were read
system.cpu2.num_cc_register_writes            3203925                       # number of times the CC registers were written
system.cpu2.num_mem_refs                      2086782                       # number of memory refs
system.cpu2.num_load_insts                    1353214                       # Number of load instructions
system.cpu2.num_store_insts                    733568                       # Number of store instructions
system.cpu2.num_idle_cycles              4653623057.938599                       # Number of idle cycles
system.cpu2.num_busy_cycles              19597242.061402                       # Number of busy cycles
system.cpu2.not_idle_fraction                0.004194                       # Percentage of non-idle cycles
system.cpu2.idle_fraction                    0.995806                       # Percentage of idle cycles
system.cpu2.Branches                          1095730                       # Number of branches fetched
system.cpu2.op_class::No_OpClass                72852      0.78%      0.78% # Class of executed instruction
system.cpu2.op_class::IntAlu                  7193833     76.63%     77.41% # Class of executed instruction
system.cpu2.op_class::IntMult                    8328      0.09%     77.50% # Class of executed instruction
system.cpu2.op_class::IntDiv                    24373      0.26%     77.76% # Class of executed instruction
system.cpu2.op_class::FloatAdd                   1344      0.01%     77.77% # Class of executed instruction
system.cpu2.op_class::FloatCmp                      0      0.00%     77.77% # Class of executed instruction
system.cpu2.op_class::FloatCvt                      0      0.00%     77.77% # Class of executed instruction
system.cpu2.op_class::FloatMult                     0      0.00%     77.77% # Class of executed instruction
system.cpu2.op_class::FloatDiv                      0      0.00%     77.77% # Class of executed instruction
system.cpu2.op_class::FloatSqrt                     0      0.00%     77.77% # Class of executed instruction
system.cpu2.op_class::SimdAdd                       0      0.00%     77.77% # Class of executed instruction
system.cpu2.op_class::SimdAddAcc                    0      0.00%     77.77% # Class of executed instruction
system.cpu2.op_class::SimdAlu                       0      0.00%     77.77% # Class of executed instruction
system.cpu2.op_class::SimdCmp                       0      0.00%     77.77% # Class of executed instruction
system.cpu2.op_class::SimdCvt                       0      0.00%     77.77% # Class of executed instruction
system.cpu2.op_class::SimdMisc                      0      0.00%     77.77% # Class of executed instruction
system.cpu2.op_class::SimdMult                      0      0.00%     77.77% # Class of executed instruction
system.cpu2.op_class::SimdMultAcc                   0      0.00%     77.77% # Class of executed instruction
system.cpu2.op_class::SimdShift                     0      0.00%     77.77% # Class of executed instruction
system.cpu2.op_class::SimdShiftAcc                  0      0.00%     77.77% # Class of executed instruction
system.cpu2.op_class::SimdSqrt                      0      0.00%     77.77% # Class of executed instruction
system.cpu2.op_class::SimdFloatAdd                  0      0.00%     77.77% # Class of executed instruction
system.cpu2.op_class::SimdFloatAlu                  0      0.00%     77.77% # Class of executed instruction
system.cpu2.op_class::SimdFloatCmp                  0      0.00%     77.77% # Class of executed instruction
system.cpu2.op_class::SimdFloatCvt                  0      0.00%     77.77% # Class of executed instruction
system.cpu2.op_class::SimdFloatDiv                  0      0.00%     77.77% # Class of executed instruction
system.cpu2.op_class::SimdFloatMisc                 0      0.00%     77.77% # Class of executed instruction
system.cpu2.op_class::SimdFloatMult                 0      0.00%     77.77% # Class of executed instruction
system.cpu2.op_class::SimdFloatMultAcc              0      0.00%     77.77% # Class of executed instruction
system.cpu2.op_class::SimdFloatSqrt                 0      0.00%     77.77% # Class of executed instruction
system.cpu2.op_class::MemRead                 1353214     14.42%     92.19% # Class of executed instruction
system.cpu2.op_class::MemWrite                 733568      7.81%    100.00% # Class of executed instruction
system.cpu2.op_class::IprAccess                     0      0.00%    100.00% # Class of executed instruction
system.cpu2.op_class::InstPrefetch                  0      0.00%    100.00% # Class of executed instruction
system.cpu2.op_class::total                   9387512                       # Class of executed instruction
system.cpu3.apic_clk_domain.clock                8000                       # Clock period in ticks
system.cpu3.numCycles                      4677139794                       # number of cpu cycles simulated
system.cpu3.numWorkItemsStarted                     0                       # number of work items this cpu started
system.cpu3.numWorkItemsCompleted                   0                       # number of work items this cpu completed
system.cpu3.kern.inst.arm                           0                       # number of arm instructions executed
system.cpu3.kern.inst.quiesce                       0                       # number of quiesce instructions executed
system.cpu3.committedInsts                    1783479                       # Number of instructions committed
system.cpu3.committedOps                      3810504                       # Number of ops (including micro ops) committed
system.cpu3.num_int_alu_accesses              3735370                       # Number of integer alu accesses
system.cpu3.num_fp_alu_accesses                    39                       # Number of float alu accesses
system.cpu3.num_func_calls                     102060                       # number of times a function call or return occured
system.cpu3.num_conditional_control_insts       295429                       # number of instructions that are conditional controls
system.cpu3.num_int_insts                     3735370                       # number of integer instructions
system.cpu3.num_fp_insts                           39                       # number of float instructions
system.cpu3.num_int_register_reads            7442850                       # number of times the integer registers were read
system.cpu3.num_int_register_writes           3076852                       # number of times the integer registers were written
system.cpu3.num_fp_register_reads                  63                       # number of times the floating registers were read
system.cpu3.num_fp_register_writes                 31                       # number of times the floating registers were written
system.cpu3.num_cc_register_reads             2265528                       # number of times the CC registers were read
system.cpu3.num_cc_register_writes            1168548                       # number of times the CC registers were written
system.cpu3.num_mem_refs                       864762                       # number of memory refs
system.cpu3.num_load_insts                     538971                       # Number of load instructions
system.cpu3.num_store_insts                    325791                       # Number of store instructions
system.cpu3.num_idle_cycles              4669590997.691046                       # Number of idle cycles
system.cpu3.num_busy_cycles              7548796.308954                       # Number of busy cycles
system.cpu3.not_idle_fraction                0.001614                       # Percentage of non-idle cycles
system.cpu3.idle_fraction                    0.998386                       # Percentage of idle cycles
system.cpu3.Branches                           429984                       # Number of branches fetched
system.cpu3.op_class::No_OpClass                60209      1.58%      1.58% # Class of executed instruction
system.cpu3.op_class::IntAlu                  2857544     74.99%     76.57% # Class of executed instruction
system.cpu3.op_class::IntMult                    7276      0.19%     76.76% # Class of executed instruction
system.cpu3.op_class::IntDiv                    20705      0.54%     77.31% # Class of executed instruction
system.cpu3.op_class::FloatAdd                     30      0.00%     77.31% # Class of executed instruction
system.cpu3.op_class::FloatCmp                      0      0.00%     77.31% # Class of executed instruction
system.cpu3.op_class::FloatCvt                      0      0.00%     77.31% # Class of executed instruction
system.cpu3.op_class::FloatMult                     0      0.00%     77.31% # Class of executed instruction
system.cpu3.op_class::FloatDiv                      0      0.00%     77.31% # Class of executed instruction
system.cpu3.op_class::FloatSqrt                     0      0.00%     77.31% # Class of executed instruction
system.cpu3.op_class::SimdAdd                       0      0.00%     77.31% # Class of executed instruction
system.cpu3.op_class::SimdAddAcc                    0      0.00%     77.31% # Class of executed instruction
system.cpu3.op_class::SimdAlu                       0      0.00%     77.31% # Class of executed instruction
system.cpu3.op_class::SimdCmp                       0      0.00%     77.31% # Class of executed instruction
system.cpu3.op_class::SimdCvt                       0      0.00%     77.31% # Class of executed instruction
system.cpu3.op_class::SimdMisc                      0      0.00%     77.31% # Class of executed instruction
system.cpu3.op_class::SimdMult                      0      0.00%     77.31% # Class of executed instruction
system.cpu3.op_class::SimdMultAcc                   0      0.00%     77.31% # Class of executed instruction
system.cpu3.op_class::SimdShift                     0      0.00%     77.31% # Class of executed instruction
system.cpu3.op_class::SimdShiftAcc                  0      0.00%     77.31% # Class of executed instruction
system.cpu3.op_class::SimdSqrt                      0      0.00%     77.31% # Class of executed instruction
system.cpu3.op_class::SimdFloatAdd                  0      0.00%     77.31% # Class of executed instruction
system.cpu3.op_class::SimdFloatAlu                  0      0.00%     77.31% # Class of executed instruction
system.cpu3.op_class::SimdFloatCmp                  0      0.00%     77.31% # Class of executed instruction
system.cpu3.op_class::SimdFloatCvt                  0      0.00%     77.31% # Class of executed instruction
system.cpu3.op_class::SimdFloatDiv                  0      0.00%     77.31% # Class of executed instruction
system.cpu3.op_class::SimdFloatMisc                 0      0.00%     77.31% # Class of executed instruction
system.cpu3.op_class::SimdFloatMult                 0      0.00%     77.31% # Class of executed instruction
system.cpu3.op_class::SimdFloatMultAcc              0      0.00%     77.31% # Class of executed instruction
system.cpu3.op_class::SimdFloatSqrt                 0      0.00%     77.31% # Class of executed instruction
system.cpu3.op_class::MemRead                  538971     14.14%     91.45% # Class of executed instruction
system.cpu3.op_class::MemWrite                 325791      8.55%    100.00% # Class of executed instruction
system.cpu3.op_class::IprAccess                     0      0.00%    100.00% # Class of executed instruction
system.cpu3.op_class::InstPrefetch                  0      0.00%    100.00% # Class of executed instruction
system.cpu3.op_class::total                   3810526                       # Class of executed instruction
system.iobus.trans_dist::ReadReq                  406                       # Transaction distribution
system.iobus.trans_dist::ReadResp                 406                       # Transaction distribution
system.iobus.trans_dist::WriteReq                3052                       # Transaction distribution
system.iobus.trans_dist::WriteResp               3052                       # Transaction distribution
system.iobus.trans_dist::MessageReq                56                       # Transaction distribution
system.iobus.trans_dist::MessageResp               56                       # Transaction distribution
system.iobus.pkt_count_system.pc.south_bridge.io_apic.int_master::system.ruby.l1_cntrl0.sequencer.pio-slave-port           22                       # Packet count per connected master and slave (bytes)
system.iobus.pkt_count_system.pc.south_bridge.io_apic.int_master::system.ruby.l1_cntrl1.sequencer.pio-slave-port           22                       # Packet count per connected master and slave (bytes)
system.iobus.pkt_count_system.pc.south_bridge.io_apic.int_master::system.ruby.l1_cntrl2.sequencer.pio-slave-port           22                       # Packet count per connected master and slave (bytes)
system.iobus.pkt_count_system.pc.south_bridge.io_apic.int_master::system.ruby.l1_cntrl3.sequencer.pio-slave-port           24                       # Packet count per connected master and slave (bytes)
system.iobus.pkt_count_system.pc.south_bridge.io_apic.int_master::total           90                       # Packet count per connected master and slave (bytes)
system.iobus.pkt_count_system.ruby.l1_cntrl0.sequencer.mem-master-port::system.pc.south_bridge.ide.pio          358                       # Packet count per connected master and slave (bytes)
system.iobus.pkt_count_system.ruby.l1_cntrl0.sequencer.mem-master-port::system.pc.south_bridge.io_apic.pio            8                       # Packet count per connected master and slave (bytes)
system.iobus.pkt_count_system.ruby.l1_cntrl0.sequencer.mem-master-port::system.ruby.l1_cntrl0.sequencer.pio-slave-port         1224                       # Packet count per connected master and slave (bytes)
system.iobus.pkt_count_system.ruby.l1_cntrl0.sequencer.mem-master-port::system.ruby.l1_cntrl1.sequencer.pio-slave-port            6                       # Packet count per connected master and slave (bytes)
system.iobus.pkt_count_system.ruby.l1_cntrl0.sequencer.mem-master-port::system.ruby.l1_cntrl3.sequencer.pio-slave-port            2                       # Packet count per connected master and slave (bytes)
system.iobus.pkt_count_system.ruby.l1_cntrl0.sequencer.mem-master-port::total         1598                       # Packet count per connected master and slave (bytes)
system.iobus.pkt_count_system.ruby.l1_cntrl1.sequencer.mem-master-port::system.pc.south_bridge.ide.pio          630                       # Packet count per connected master and slave (bytes)
system.iobus.pkt_count_system.ruby.l1_cntrl1.sequencer.mem-master-port::system.pc.south_bridge.io_apic.pio            8                       # Packet count per connected master and slave (bytes)
system.iobus.pkt_count_system.ruby.l1_cntrl1.sequencer.mem-master-port::system.ruby.l1_cntrl0.sequencer.pio-slave-port            4                       # Packet count per connected master and slave (bytes)
system.iobus.pkt_count_system.ruby.l1_cntrl1.sequencer.mem-master-port::system.ruby.l1_cntrl1.sequencer.pio-slave-port         1218                       # Packet count per connected master and slave (bytes)
system.iobus.pkt_count_system.ruby.l1_cntrl1.sequencer.mem-master-port::system.ruby.l1_cntrl2.sequencer.pio-slave-port            2                       # Packet count per connected master and slave (bytes)
system.iobus.pkt_count_system.ruby.l1_cntrl1.sequencer.mem-master-port::total         1862                       # Packet count per connected master and slave (bytes)
system.iobus.pkt_count_system.ruby.l1_cntrl2.sequencer.mem-master-port::system.pc.south_bridge.ide.pio          392                       # Packet count per connected master and slave (bytes)
system.iobus.pkt_count_system.ruby.l1_cntrl2.sequencer.mem-master-port::system.pc.south_bridge.io_apic.pio            6                       # Packet count per connected master and slave (bytes)
system.iobus.pkt_count_system.ruby.l1_cntrl2.sequencer.mem-master-port::system.pc.com_1.pio           22                       # Packet count per connected master and slave (bytes)
system.iobus.pkt_count_system.ruby.l1_cntrl2.sequencer.mem-master-port::system.ruby.l1_cntrl0.sequencer.pio-slave-port            2                       # Packet count per connected master and slave (bytes)
system.iobus.pkt_count_system.ruby.l1_cntrl2.sequencer.mem-master-port::system.ruby.l1_cntrl1.sequencer.pio-slave-port            2                       # Packet count per connected master and slave (bytes)
system.iobus.pkt_count_system.ruby.l1_cntrl2.sequencer.mem-master-port::system.ruby.l1_cntrl2.sequencer.pio-slave-port         1212                       # Packet count per connected master and slave (bytes)
system.iobus.pkt_count_system.ruby.l1_cntrl2.sequencer.mem-master-port::system.ruby.l1_cntrl3.sequencer.pio-slave-port            2                       # Packet count per connected master and slave (bytes)
system.iobus.pkt_count_system.ruby.l1_cntrl2.sequencer.mem-master-port::total         1638                       # Packet count per connected master and slave (bytes)
system.iobus.pkt_count_system.ruby.l1_cntrl3.sequencer.mem-master-port::system.pc.south_bridge.ide.pio          460                       # Packet count per connected master and slave (bytes)
system.iobus.pkt_count_system.ruby.l1_cntrl3.sequencer.mem-master-port::system.pc.south_bridge.io_apic.pio           14                       # Packet count per connected master and slave (bytes)
system.iobus.pkt_count_system.ruby.l1_cntrl3.sequencer.mem-master-port::system.pc.com_1.pio          162                       # Packet count per connected master and slave (bytes)
system.iobus.pkt_count_system.ruby.l1_cntrl3.sequencer.mem-master-port::system.ruby.l1_cntrl0.sequencer.pio-slave-port            2                       # Packet count per connected master and slave (bytes)
system.iobus.pkt_count_system.ruby.l1_cntrl3.sequencer.mem-master-port::system.ruby.l1_cntrl3.sequencer.pio-slave-port         1202                       # Packet count per connected master and slave (bytes)
system.iobus.pkt_count_system.ruby.l1_cntrl3.sequencer.mem-master-port::total         1840                       # Packet count per connected master and slave (bytes)
system.iobus.pkt_count::total                    7028                       # Packet count per connected master and slave (bytes)
system.iobus.pkt_size_system.pc.south_bridge.io_apic.int_master::system.ruby.l1_cntrl0.sequencer.pio-slave-port           44                       # Cumulative packet size per connected master and slave (bytes)
system.iobus.pkt_size_system.pc.south_bridge.io_apic.int_master::system.ruby.l1_cntrl1.sequencer.pio-slave-port           44                       # Cumulative packet size per connected master and slave (bytes)
system.iobus.pkt_size_system.pc.south_bridge.io_apic.int_master::system.ruby.l1_cntrl2.sequencer.pio-slave-port           44                       # Cumulative packet size per connected master and slave (bytes)
system.iobus.pkt_size_system.pc.south_bridge.io_apic.int_master::system.ruby.l1_cntrl3.sequencer.pio-slave-port           48                       # Cumulative packet size per connected master and slave (bytes)
system.iobus.pkt_size_system.pc.south_bridge.io_apic.int_master::total          180                       # Cumulative packet size per connected master and slave (bytes)
system.iobus.pkt_size_system.ruby.l1_cntrl0.sequencer.mem-master-port::system.pc.south_bridge.ide.pio          200                       # Cumulative packet size per connected master and slave (bytes)
system.iobus.pkt_size_system.ruby.l1_cntrl0.sequencer.mem-master-port::system.pc.south_bridge.io_apic.pio           16                       # Cumulative packet size per connected master and slave (bytes)
system.iobus.pkt_size_system.ruby.l1_cntrl0.sequencer.mem-master-port::system.ruby.l1_cntrl0.sequencer.pio-slave-port         2448                       # Cumulative packet size per connected master and slave (bytes)
system.iobus.pkt_size_system.ruby.l1_cntrl0.sequencer.mem-master-port::system.ruby.l1_cntrl1.sequencer.pio-slave-port           12                       # Cumulative packet size per connected master and slave (bytes)
system.iobus.pkt_size_system.ruby.l1_cntrl0.sequencer.mem-master-port::system.ruby.l1_cntrl3.sequencer.pio-slave-port            4                       # Cumulative packet size per connected master and slave (bytes)
system.iobus.pkt_size_system.ruby.l1_cntrl0.sequencer.mem-master-port::total         2680                       # Cumulative packet size per connected master and slave (bytes)
system.iobus.pkt_size_system.ruby.l1_cntrl1.sequencer.mem-master-port::system.pc.south_bridge.ide.pio          360                       # Cumulative packet size per connected master and slave (bytes)
system.iobus.pkt_size_system.ruby.l1_cntrl1.sequencer.mem-master-port::system.pc.south_bridge.io_apic.pio           16                       # Cumulative packet size per connected master and slave (bytes)
system.iobus.pkt_size_system.ruby.l1_cntrl1.sequencer.mem-master-port::system.ruby.l1_cntrl0.sequencer.pio-slave-port            8                       # Cumulative packet size per connected master and slave (bytes)
system.iobus.pkt_size_system.ruby.l1_cntrl1.sequencer.mem-master-port::system.ruby.l1_cntrl1.sequencer.pio-slave-port         2436                       # Cumulative packet size per connected master and slave (bytes)
system.iobus.pkt_size_system.ruby.l1_cntrl1.sequencer.mem-master-port::system.ruby.l1_cntrl2.sequencer.pio-slave-port            4                       # Cumulative packet size per connected master and slave (bytes)
system.iobus.pkt_size_system.ruby.l1_cntrl1.sequencer.mem-master-port::total         2824                       # Cumulative packet size per connected master and slave (bytes)
system.iobus.pkt_size_system.ruby.l1_cntrl2.sequencer.mem-master-port::system.pc.south_bridge.ide.pio          220                       # Cumulative packet size per connected master and slave (bytes)
system.iobus.pkt_size_system.ruby.l1_cntrl2.sequencer.mem-master-port::system.pc.south_bridge.io_apic.pio           12                       # Cumulative packet size per connected master and slave (bytes)
system.iobus.pkt_size_system.ruby.l1_cntrl2.sequencer.mem-master-port::system.pc.com_1.pio           11                       # Cumulative packet size per connected master and slave (bytes)
system.iobus.pkt_size_system.ruby.l1_cntrl2.sequencer.mem-master-port::system.ruby.l1_cntrl0.sequencer.pio-slave-port            4                       # Cumulative packet size per connected master and slave (bytes)
system.iobus.pkt_size_system.ruby.l1_cntrl2.sequencer.mem-master-port::system.ruby.l1_cntrl1.sequencer.pio-slave-port            4                       # Cumulative packet size per connected master and slave (bytes)
system.iobus.pkt_size_system.ruby.l1_cntrl2.sequencer.mem-master-port::system.ruby.l1_cntrl2.sequencer.pio-slave-port         2424                       # Cumulative packet size per connected master and slave (bytes)
system.iobus.pkt_size_system.ruby.l1_cntrl2.sequencer.mem-master-port::system.ruby.l1_cntrl3.sequencer.pio-slave-port            4                       # Cumulative packet size per connected master and slave (bytes)
system.iobus.pkt_size_system.ruby.l1_cntrl2.sequencer.mem-master-port::total         2679                       # Cumulative packet size per connected master and slave (bytes)
system.iobus.pkt_size_system.ruby.l1_cntrl3.sequencer.mem-master-port::system.pc.south_bridge.ide.pio          260                       # Cumulative packet size per connected master and slave (bytes)
system.iobus.pkt_size_system.ruby.l1_cntrl3.sequencer.mem-master-port::system.pc.south_bridge.io_apic.pio           28                       # Cumulative packet size per connected master and slave (bytes)
system.iobus.pkt_size_system.ruby.l1_cntrl3.sequencer.mem-master-port::system.pc.com_1.pio           81                       # Cumulative packet size per connected master and slave (bytes)
system.iobus.pkt_size_system.ruby.l1_cntrl3.sequencer.mem-master-port::system.ruby.l1_cntrl0.sequencer.pio-slave-port            4                       # Cumulative packet size per connected master and slave (bytes)
system.iobus.pkt_size_system.ruby.l1_cntrl3.sequencer.mem-master-port::system.ruby.l1_cntrl3.sequencer.pio-slave-port         2404                       # Cumulative packet size per connected master and slave (bytes)
system.iobus.pkt_size_system.ruby.l1_cntrl3.sequencer.mem-master-port::total         2777                       # Cumulative packet size per connected master and slave (bytes)
system.iobus.pkt_size::total                    11140                       # Cumulative packet size per connected master and slave (bytes)
system.iobus.reqLayer2.occupancy              1584500                       # Layer occupancy (ticks)
system.iobus.reqLayer2.utilization                0.0                       # Layer utilization (%)
system.iobus.reqLayer8.occupancy                31996                       # Layer occupancy (ticks)
system.iobus.reqLayer8.utilization                0.0                       # Layer utilization (%)
system.iobus.reqLayer12.occupancy              121000                       # Layer occupancy (ticks)
system.iobus.reqLayer12.utilization               0.0                       # Layer utilization (%)
system.iobus.reqLayer17.occupancy             1557488                       # Layer occupancy (ticks)
system.iobus.reqLayer17.utilization               0.0                       # Layer utilization (%)
system.iobus.reqLayer18.occupancy             1653471                       # Layer occupancy (ticks)
system.iobus.reqLayer18.utilization               0.0                       # Layer utilization (%)
system.iobus.reqLayer19.occupancy             1537488                       # Layer occupancy (ticks)
system.iobus.reqLayer19.utilization               0.0                       # Layer utilization (%)
system.iobus.reqLayer20.occupancy             1530990                       # Layer occupancy (ticks)
system.iobus.reqLayer20.utilization               0.0                       # Layer utilization (%)
system.iobus.respLayer0.occupancy               79960                       # Layer occupancy (ticks)
system.iobus.respLayer0.utilization               0.0                       # Layer utilization (%)
system.iobus.respLayer2.occupancy             1179500                       # Layer occupancy (ticks)
system.iobus.respLayer2.utilization               0.0                       # Layer utilization (%)
system.iobus.respLayer4.occupancy             1340500                       # Layer occupancy (ticks)
system.iobus.respLayer4.utilization               0.0                       # Layer utilization (%)
system.iobus.respLayer6.occupancy             1206000                       # Layer occupancy (ticks)
system.iobus.respLayer6.utilization               0.0                       # Layer utilization (%)
system.iobus.respLayer8.occupancy             1363500                       # Layer occupancy (ticks)
system.iobus.respLayer8.utilization               0.0                       # Layer utilization (%)
system.pc.south_bridge.ide.disks.dma_read_full_pages          356                       # Number of full page size DMA reads (not PRD).
system.pc.south_bridge.ide.disks.dma_read_bytes      1458176                       # Number of bytes transfered via DMA reads (not PRD).
system.pc.south_bridge.ide.disks.dma_read_txs          356                       # Number of DMA read transactions (not PRD).
system.pc.south_bridge.ide.disks.dma_write_full_pages            0                       # Number of full page size DMA writes.
system.pc.south_bridge.ide.disks.dma_write_bytes            0                       # Number of bytes transfered via DMA writes.
system.pc.south_bridge.ide.disks.dma_write_txs            0                       # Number of DMA write transactions.
system.ruby.clk_domain.clock                      500                       # Clock period in ticks
system.ruby.outstanding_req_hist_seqr::bucket_size            1                      
system.ruby.outstanding_req_hist_seqr::max_bucket            9                      
system.ruby.outstanding_req_hist_seqr::samples   2273556749                      
system.ruby.outstanding_req_hist_seqr::mean     1.001963                      
system.ruby.outstanding_req_hist_seqr::gmean     1.001361                      
system.ruby.outstanding_req_hist_seqr::stdev     0.044260                      
system.ruby.outstanding_req_hist_seqr    |           0      0.00%      0.00% |  2269094181     99.80%     99.80% |     4462568      0.20%    100.00% |           0      0.00%    100.00% |           0      0.00%    100.00% |           0      0.00%    100.00% |           0      0.00%    100.00% |           0      0.00%    100.00% |           0      0.00%    100.00% |           0      0.00%    100.00%
system.ruby.outstanding_req_hist_seqr::total   2273556749                      
system.ruby.latency_hist_seqr::bucket_size          128                      
system.ruby.latency_hist_seqr::max_bucket         1279                      
system.ruby.latency_hist_seqr::samples     2273556749                      
system.ruby.latency_hist_seqr::mean          1.068180                      
system.ruby.latency_hist_seqr::gmean         1.003756                      
system.ruby.latency_hist_seqr::stdev         3.022273                      
system.ruby.latency_hist_seqr            |  2273460340    100.00%    100.00% |       65698      0.00%    100.00% |       12673      0.00%    100.00% |        5828      0.00%    100.00% |        9572      0.00%    100.00% |        2403      0.00%    100.00% |         139      0.00%    100.00% |          78      0.00%    100.00% |          16      0.00%    100.00% |           2      0.00%    100.00%
system.ruby.latency_hist_seqr::total       2273556749                      
system.ruby.hit_latency_hist_seqr::bucket_size            2                      
system.ruby.hit_latency_hist_seqr::max_bucket           19                      
system.ruby.hit_latency_hist_seqr::samples   2272187003                      
system.ruby.hit_latency_hist_seqr::mean      1.004098                      
system.ruby.hit_latency_hist_seqr::gmean     1.000983                      
system.ruby.hit_latency_hist_seqr::stdev     0.202393                      
[...]
system.ruby.L1Cache_Controller.M.Ifetch::total   1918494568                      
system.ruby.L1Cache_Controller.M.Store   |       19285      5.44%      5.44% |      267448     75.47%     80.91% |       64978     18.33%     99.24% |        2685      0.76%    100.00%
system.ruby.L1Cache_Controller.M.Store::total       354396                      
system.ruby.L1Cache_Controller.M.L2_Replacement |        1898      0.31%      0.31% |      530792     87.27%     87.58% |       75439     12.40%     99.99% |          72      0.01%    100.00%
system.ruby.L1Cache_Controller.M.L2_Replacement::total       608201                      
system.ruby.L1Cache_Controller.M.L1_to_L2 |       12714      1.09%      1.09% |     1035773     88.65%     89.74% |      112893      9.66%     99.40% |        6968      0.60%    100.00%
system.ruby.L1Cache_Controller.M.L1_to_L2::total      1168348                      
system.ruby.L1Cache_Controller.M.Trigger_L2_to_L1D |        4890      0.96%      0.96% |      488178     95.71%     96.67% |       15438      3.03%     99.70% |        1533      0.30%    100.00%
system.ruby.L1Cache_Controller.M.Trigger_L2_to_L1D::total       510039                      
system.ruby.L1Cache_Controller.M.Trigger_L2_to_L1I |        4514     16.41%     16.41% |        5831     21.20%     37.61% |       16764     60.95%     98.56% |         397      1.44%    100.00%
system.ruby.L1Cache_Controller.M.Trigger_L2_to_L1I::total        27506                      
system.ruby.L1Cache_Controller.M.Other_GETX |         438     18.57%     18.57% |         806     34.17%     52.73% |         640     27.13%     79.86% |         475     20.14%    100.00%
system.ruby.L1Cache_Controller.M.Other_GETX::total         2359                      
system.ruby.L1Cache_Controller.M.Other_GETS |        4638     16.96%     16.96% |        6928     25.34%     42.30% |        6937     25.37%     67.67% |        8840     32.33%    100.00%
system.ruby.L1Cache_Controller.M.Other_GETS::total        27343                      
system.ruby.L1Cache_Controller.M.Merged_GETS |           5     12.82%     12.82% |          24     61.54%     74.36% |           4     10.26%     84.62% |           6     15.38%    100.00%
system.ruby.L1Cache_Controller.M.Merged_GETS::total           39                      
system.ruby.L1Cache_Controller.MM.Load   |      685152      0.72%      0.72% |    76984915     80.54%     81.25% |    17402402     18.21%     99.46% |      516886      0.54%    100.00%
system.ruby.L1Cache_Controller.MM.Load::total     95589355                      
system.ruby.L1Cache_Controller.MM.Store  |      834906      1.56%      1.56% |    39337257     73.60%     75.16% |    12700904     23.76%     98.93% |      573164      1.07%    100.00%
system.ruby.L1Cache_Controller.MM.Store::total     53446231                      
system.ruby.L1Cache_Controller.MM.L2_Replacement |        6152      0.77%      0.77% |      706689     88.19%     88.96% |       88213     11.01%     99.97% |         235      0.03%    100.00%
system.ruby.L1Cache_Controller.MM.L2_Replacement::total       801289                      
system.ruby.L1Cache_Controller.MM.L1_to_L2 |       40390      3.23%      3.23% |      980873     78.45%     81.68% |      215099     17.20%     98.88% |       13982      1.12%    100.00%
system.ruby.L1Cache_Controller.MM.L1_to_L2::total      1250344                      
system.ruby.L1Cache_Controller.MM.Trigger_L2_to_L1D |       14582      3.80%      3.80% |      255276     66.59%     70.39% |      107277     27.98%     98.37% |        6233      1.63%    100.00%
system.ruby.L1Cache_Controller.MM.Trigger_L2_to_L1D::total       383368                      
system.ruby.L1Cache_Controller.MM.Other_GETX |        7317     53.71%     53.71% |        1233      9.05%     62.76% |        4222     30.99%     93.75% |         851      6.25%    100.00%
system.ruby.L1Cache_Controller.MM.Other_GETX::total        13623                      
system.ruby.L1Cache_Controller.MM.Other_GETS |       32859     55.65%     55.65% |       12098     20.49%     76.14% |       10081     17.07%     93.21% |        4011      6.79%    100.00%
system.ruby.L1Cache_Controller.MM.Other_GETS::total        59049                      
system.ruby.L1Cache_Controller.MM.Merged_GETS |           7      9.72%      9.72% |          31     43.06%     52.78% |          23     31.94%     84.72% |          11     15.28%    100.00%
system.ruby.L1Cache_Controller.MM.Merged_GETS::total           72                      
system.ruby.L1Cache_Controller.SR.Load   |        2972      6.73%      6.73% |       27951     63.26%     69.99% |        9817     22.22%     92.21% |        3441      7.79%    100.00%
system.ruby.L1Cache_Controller.SR.Load::total        44181                      
system.ruby.L1Cache_Controller.SR.Ifetch |       22432     16.37%     16.37% |       34598     25.25%     41.63% |       51492     37.58%     79.21% |       28487     20.79%    100.00%
system.ruby.L1Cache_Controller.SR.Ifetch::total       137009                      
system.ruby.L1Cache_Controller.SR.Store  |         104     20.08%     20.08% |         106     20.46%     40.54% |         212     40.93%     81.47% |          96     18.53%    100.00%
system.ruby.L1Cache_Controller.SR.Store::total          518                      
system.ruby.L1Cache_Controller.OR.Load   |        2452     43.97%     43.97% |         310      5.56%     49.52% |        1356     24.31%     73.84% |        1459     26.16%    100.00%
system.ruby.L1Cache_Controller.OR.Load::total         5577                      
system.ruby.L1Cache_Controller.OR.Ifetch |       16704     57.13%     57.13% |        1610      5.51%     62.64% |        8045     27.52%     90.16% |        2878      9.84%    100.00%
system.ruby.L1Cache_Controller.OR.Ifetch::total        29237                      
system.ruby.L1Cache_Controller.OR.Store  |           6     18.18%     18.18% |           4     12.12%     30.30% |          17     51.52%     81.82% |           6     18.18%    100.00%
system.ruby.L1Cache_Controller.OR.Store::total           33                      
system.ruby.L1Cache_Controller.MR.Load   |        4490      0.89%      0.89% |      485108     96.44%     97.33% |       12352      2.46%     99.79% |        1056      0.21%    100.00%
system.ruby.L1Cache_Controller.MR.Load::total       503006                      
system.ruby.L1Cache_Controller.MR.Ifetch |        4514     16.41%     16.41% |        5831     21.20%     37.61% |       16764     60.95%     98.56% |         397      1.44%    100.00%
system.ruby.L1Cache_Controller.MR.Ifetch::total        27506                      
system.ruby.L1Cache_Controller.MR.Store  |         400      5.69%      5.69% |        3070     43.65%     49.34% |        3086     43.88%     93.22% |         477      6.78%    100.00%
system.ruby.L1Cache_Controller.MR.Store::total         7033                      
system.ruby.L1Cache_Controller.MMR.Load  |        7564      2.45%      2.45% |      223869     72.42%     74.87% |       75317     24.36%     99.23% |        2373      0.77%    100.00%
system.ruby.L1Cache_Controller.MMR.Load::total       309123                      
system.ruby.L1Cache_Controller.MMR.Store |        7018      9.45%      9.45% |       31407     42.30%     51.75% |       31960     43.05%     94.80% |        3860      5.20%    100.00%
system.ruby.L1Cache_Controller.MMR.Store::total        74245                      
system.ruby.L1Cache_Controller.IM.Ack    |       17149      1.15%      1.15% |     1351836     90.58%     91.73% |      110670      7.42%     99.15% |       12752      0.85%    100.00%
system.ruby.L1Cache_Controller.IM.Ack::total      1492407                      
system.ruby.L1Cache_Controller.IM.Data   |        2269     41.96%     41.96% |        1033     19.10%     61.07% |        1074     19.86%     80.93% |        1031     19.07%    100.00%
system.ruby.L1Cache_Controller.IM.Data::total         5407                      
system.ruby.L1Cache_Controller.IM.Exclusive_Data |        5745      1.13%      1.13% |      455040     89.87%     91.01% |       40140      7.93%     98.94% |        5390      1.06%    100.00%
system.ruby.L1Cache_Controller.IM.Exclusive_Data::total       506315                      
system.ruby.L1Cache_Controller.SM.Ack    |        5322     44.17%     44.17% |        2474     20.53%     64.70% |        2087     17.32%     82.02% |        2166     17.98%    100.00%
system.ruby.L1Cache_Controller.SM.Ack::total        12049                      
system.ruby.L1Cache_Controller.SM.Data   |        3612     36.59%     36.59% |        2471     25.03%     61.62% |        2238     22.67%     84.29% |        1551     15.71%    100.00%
system.ruby.L1Cache_Controller.SM.Data::total         9872                      
system.ruby.L1Cache_Controller.OM.Ack    |         102     12.98%     12.98% |         165     20.99%     33.97% |         366     46.56%     80.53% |         153     19.47%    100.00%
system.ruby.L1Cache_Controller.OM.Ack::total          786                      
system.ruby.L1Cache_Controller.OM.All_acks_no_sharers |          34     12.98%     12.98% |          55     20.99%     33.97% |         122     46.56%     80.53% |          51     19.47%    100.00%
system.ruby.L1Cache_Controller.OM.All_acks_no_sharers::total          262                      
system.ruby.L1Cache_Controller.ISM.Ack   |        2886     24.38%     24.38% |        3445     29.10%     53.48% |        4067     34.36%     87.84% |        1440     12.16%    100.00%
system.ruby.L1Cache_Controller.ISM.Ack::total        11838                      
system.ruby.L1Cache_Controller.ISM.All_acks_no_sharers |        5881     38.49%     38.49% |        3504     22.93%     61.42% |        3312     21.68%     83.10% |        2582     16.90%    100.00%
system.ruby.L1Cache_Controller.ISM.All_acks_no_sharers::total        15279                      
system.ruby.L1Cache_Controller.M_W.Load  |          46      5.50%      5.50% |          84     10.04%     15.53% |         677     80.88%     96.42% |          30      3.58%    100.00%
system.ruby.L1Cache_Controller.M_W.Load::total          837                      
system.ruby.L1Cache_Controller.M_W.Store |         330     86.39%     86.39% |           9      2.36%     88.74% |          32      8.38%     97.12% |          11      2.88%    100.00%
system.ruby.L1Cache_Controller.M_W.Store::total          382                      
system.ruby.L1Cache_Controller.M_W.Ack   |        6918     10.03%     10.03% |       16844     24.42%     34.45% |       34341     49.79%     84.24% |       10868     15.76%    100.00%
system.ruby.L1Cache_Controller.M_W.Ack::total        68971                      
system.ruby.L1Cache_Controller.M_W.All_acks_no_sharers |       25629      2.55%      2.55% |      813267     81.00%     83.55% |      151907     15.13%     98.68% |       13245      1.32%    100.00%
system.ruby.L1Cache_Controller.M_W.All_acks_no_sharers::total      1004048                      
system.ruby.L1Cache_Controller.MM_W.Load |           0      0.00%      0.00% |           0      0.00%      0.00% |           2    100.00%    100.00% |           0      0.00%    100.00%
system.ruby.L1Cache_Controller.MM_W.Load::total            2                      
system.ruby.L1Cache_Controller.MM_W.Store |         839     11.63%     11.63% |        2761     38.26%     49.88% |        2907     40.28%     90.16% |         710      9.84%    100.00%
system.ruby.L1Cache_Controller.MM_W.Store::total         7217                      
system.ruby.L1Cache_Controller.MM_W.Ack  |        2138     11.86%     11.86% |        7840     43.47%     55.33% |        5907     32.75%     88.08% |        2149     11.92%    100.00%
system.ruby.L1Cache_Controller.MM_W.Ack::total        18034                      
system.ruby.L1Cache_Controller.MM_W.All_acks_no_sharers |        6075      1.20%      1.20% |      455049     89.81%     91.01% |       40172      7.93%     98.93% |        5401      1.07%    100.00%
system.ruby.L1Cache_Controller.MM_W.All_acks_no_sharers::total       506697                      
system.ruby.L1Cache_Controller.IS.Ack    |       77967      2.64%      2.64% |     2425851     82.24%     84.88% |      417222     14.14%     99.03% |       28691      0.97%    100.00%
system.ruby.L1Cache_Controller.IS.Ack::total      2949731                      
system.ruby.L1Cache_Controller.IS.Shared_Ack |        8103     20.30%     20.30% |       12610     31.59%     51.89% |       11439     28.66%     80.55% |        7762     19.45%    100.00%
system.ruby.L1Cache_Controller.IS.Shared_Ack::total        39914                      
system.ruby.L1Cache_Controller.IS.Data   |        2789     17.36%     17.36% |        4887     30.42%     47.78% |        5397     33.60%     81.38% |        2991     18.62%    100.00%
system.ruby.L1Cache_Controller.IS.Data::total        16064                      
system.ruby.L1Cache_Controller.IS.Shared_Data |       11479     22.38%     22.38% |       13862     27.03%     49.41% |       18301     35.68%     85.09% |        7649     14.91%    100.00%
system.ruby.L1Cache_Controller.IS.Shared_Data::total        51291                      
system.ruby.L1Cache_Controller.IS.Exclusive_Data |       25959      2.58%      2.58% |      813276     80.97%     83.55% |      151939     15.13%     98.68% |       13256      1.32%    100.00%
system.ruby.L1Cache_Controller.IS.Exclusive_Data::total      1004430                      
system.ruby.L1Cache_Controller.SS.Load   |          56      2.87%      2.87% |         399     20.44%     23.31% |        1475     75.56%     98.87% |          22      1.13%    100.00%
system.ruby.L1Cache_Controller.SS.Load::total         1952                      
system.ruby.L1Cache_Controller.SS.Ifetch |        1104     14.89%     14.89% |        3255     43.92%     58.81% |        2073     27.97%     86.78% |         980     13.22%    100.00%
system.ruby.L1Cache_Controller.SS.Ifetch::total         7412                      
system.ruby.L1Cache_Controller.SS.Store  |           2     15.38%     15.38% |           7     53.85%     69.23% |           4     30.77%    100.00% |           0      0.00%    100.00%
system.ruby.L1Cache_Controller.SS.Store::total           13                      
system.ruby.L1Cache_Controller.SS.Ack    |        6933     20.51%     20.51% |        7993     23.65%     44.16% |       13218     39.11%     83.28% |        5652     16.72%    100.00%
system.ruby.L1Cache_Controller.SS.Ack::total        33796                      
system.ruby.L1Cache_Controller.SS.Shared_Ack |        2098     17.15%     17.15% |        5030     41.13%     58.28% |        3427     28.02%     86.30% |        1675     13.70%    100.00%
system.ruby.L1Cache_Controller.SS.Shared_Ack::total        12230                      
system.ruby.L1Cache_Controller.SS.All_acks |       14041     21.49%     21.49% |       18670     28.57%     50.06% |       22048     33.74%     83.80% |       10582     16.20%    100.00%
system.ruby.L1Cache_Controller.SS.All_acks::total        65341                      
system.ruby.L1Cache_Controller.SS.All_acks_no_sharers |         227     11.27%     11.27% |          79      3.92%     15.19% |        1650     81.93%     97.12% |          58      2.88%    100.00%
system.ruby.L1Cache_Controller.SS.All_acks_no_sharers::total         2014                      
system.ruby.L1Cache_Controller.OI.Load   |           1     16.67%     16.67% |           0      0.00%     16.67% |           5     83.33%    100.00% |           0      0.00%    100.00%
system.ruby.L1Cache_Controller.OI.Load::total            6                      
system.ruby.L1Cache_Controller.OI.Ifetch |           3    100.00%    100.00% |           0      0.00%    100.00% |           0      0.00%    100.00% |           0      0.00%    100.00%
system.ruby.L1Cache_Controller.OI.Ifetch::total            3                      
system.ruby.L1Cache_Controller.OI.Store  |           0      0.00%      0.00% |           0      0.00%      0.00% |           1    100.00%    100.00% |           0      0.00%    100.00%
system.ruby.L1Cache_Controller.OI.Store::total            1                      
system.ruby.L1Cache_Controller.OI.Writeback_Ack |        2444     30.03%     30.03% |        3861     47.44%     77.48% |        1656     20.35%     97.83% |         177      2.17%    100.00%
system.ruby.L1Cache_Controller.OI.Writeback_Ack::total         8138                      
system.ruby.L1Cache_Controller.MI.Load   |          32      2.16%      2.16% |        1277     86.11%     88.27% |         173     11.67%     99.93% |           1      0.07%    100.00%
system.ruby.L1Cache_Controller.MI.Load::total         1483                      
system.ruby.L1Cache_Controller.MI.Ifetch |           0      0.00%      0.00% |           5     62.50%     62.50% |           3     37.50%    100.00% |           0      0.00%    100.00%
system.ruby.L1Cache_Controller.MI.Ifetch::total            8                      
system.ruby.L1Cache_Controller.MI.Store  |          14      5.96%      5.96% |          88     37.45%     43.40% |         132     56.17%     99.57% |           1      0.43%    100.00%
system.ruby.L1Cache_Controller.MI.Store::total          235                      
system.ruby.L1Cache_Controller.MI.Writeback_Ack |        8050      0.57%      0.57% |     1237481     87.80%     88.37% |      163652     11.61%     99.98% |         307      0.02%    100.00%
system.ruby.L1Cache_Controller.MI.Writeback_Ack::total      1409490                      
system.ruby.L1Cache_Controller.ST.Complete_L2_to_L1 |       25508     14.04%     14.04% |       62655     34.48%     48.52% |       61521     33.86%     82.38% |       32024     17.62%    100.00%
system.ruby.L1Cache_Controller.ST.Complete_L2_to_L1::total       181708                      
system.ruby.L1Cache_Controller.OT.Complete_L2_to_L1 |       19162     54.99%     54.99% |        1924      5.52%     60.51% |        9418     27.03%     87.54% |        4343     12.46%    100.00%
system.ruby.L1Cache_Controller.OT.Complete_L2_to_L1::total        34847                      
system.ruby.L1Cache_Controller.MT.Load   |           0      0.00%      0.00% |           5    100.00%    100.00% |           0      0.00%    100.00% |           0      0.00%    100.00%
system.ruby.L1Cache_Controller.MT.Load::total            5                      
system.ruby.L1Cache_Controller.MT.Store  |           0      0.00%      0.00% |          19    100.00%    100.00% |           0      0.00%    100.00% |           0      0.00%    100.00%
system.ruby.L1Cache_Controller.MT.Store::total           19                      
system.ruby.L1Cache_Controller.MT.Complete_L2_to_L1 |        9404      1.75%      1.75% |      494009     91.90%     93.65% |       32202      5.99%     99.64% |        1930      0.36%    100.00%
system.ruby.L1Cache_Controller.MT.Complete_L2_to_L1::total       537545                      
system.ruby.L1Cache_Controller.MMT.Load  |           0      0.00%      0.00% |          17    100.00%    100.00% |           0      0.00%    100.00% |           0      0.00%    100.00%
system.ruby.L1Cache_Controller.MMT.Load::total           17                      
system.ruby.L1Cache_Controller.MMT.Store |           0      0.00%      0.00% |         281    100.00%    100.00% |           0      0.00%    100.00% |           0      0.00%    100.00%
system.ruby.L1Cache_Controller.MMT.Store::total          281                      
system.ruby.L1Cache_Controller.MMT.Complete_L2_to_L1 |       14582      3.80%      3.80% |      255276     66.59%     70.39% |      107277     27.98%     98.37% |        6233      1.63%    100.00%
system.ruby.L1Cache_Controller.MMT.Complete_L2_to_L1::total       383368                      

---------- End Simulation Statistics   ----------
