
---------- Begin Simulation Statistics ----------
sim_seconds                                  3.593204                       # Number of seconds simulated
sim_ticks                                3593204400000                       # Number of ticks simulated
final_tick                               55274775082501                       # Number of ticks from beginning of simulation (restored from checkpoints and never reset)
sim_freq                                 1000000000000                       # Frequency of simulated ticks
host_inst_rate                                 139513                       # Simulator instruction rate (inst/s)
host_op_rate                                   237579                       # Simulator op (including micro ops) rate (op/s)
host_tick_rate                              248145152                       # Simulator tick rate (ticks/s)
host_mem_usage                                1864932                       # Number of bytes of host memory used
host_seconds                                 14480.25                       # Real time elapsed on the host
sim_insts                                  2020177280                       # Number of instructions simulated
sim_ops                                    3440209093                       # Number of ops (including micro ops) simulated
system.voltage_domain.voltage                       1                       # Voltage in Volts
system.clk_domain.clock                          1000                       # Clock period in ticks
system.mem_ctrls.bytes_read::ruby.dir_cntrl0      1224640                       # Number of bytes read from this memory
system.mem_ctrls.bytes_read::total            1224640                       # Number of bytes read from this memory
system.mem_ctrls.bytes_written::ruby.dir_cntrl0       319424                       # Number of bytes written to this memory
system.mem_ctrls.bytes_written::total          319424                       # Number of bytes written to this memory
system.mem_ctrls.num_reads::ruby.dir_cntrl0        19135                       # Number of read requests responded to by this memory
system.mem_ctrls.num_reads::total               19135                       # Number of read requests responded to by this memory
system.mem_ctrls.num_writes::ruby.dir_cntrl0         4991                       # Number of write requests responded to by this memory
system.mem_ctrls.num_writes::total               4991                       # Number of write requests responded to by this memory
system.mem_ctrls.bw_read::ruby.dir_cntrl0       340821                       # Total read bandwidth from this memory (bytes/s)
system.mem_ctrls.bw_read::total                340821                       # Total read bandwidth from this memory (bytes/s)
system.mem_ctrls.bw_write::ruby.dir_cntrl0        88897                       # Write bandwidth from this memory (bytes/s)
system.mem_ctrls.bw_write::total                88897                       # Write bandwidth from this memory (bytes/s)
system.mem_ctrls.bw_total::ruby.dir_cntrl0       429718                       # Total bandwidth to/from this memory (bytes/s)
system.mem_ctrls.bw_total::total               429718                       # Total bandwidth to/from this memory (bytes/s)
system.mem_ctrls.readReqs                       19135                       # Number of read requests accepted
system.mem_ctrls.writeReqs                       4991                       # Number of write requests accepted
system.mem_ctrls.readBursts                     19135                       # Number of DRAM read bursts, including those serviced by the write queue
system.mem_ctrls.writeBursts                     4991                       # Number of DRAM write bursts, including those merged in the write queue
system.mem_ctrls.bytesReadDRAM                1222464                       # Total number of bytes read from DRAM
system.mem_ctrls.bytesReadWrQ                    2176                       # Total number of bytes read from write queue
system.mem_ctrls.bytesWritten                  319104                       # Total number of bytes written to DRAM
system.mem_ctrls.bytesReadSys                 1224640                       # Total read bytes from the system interface side
system.mem_ctrls.bytesWrittenSys               319424                       # Total written bytes from the system interface side
system.mem_ctrls.servicedByWrQ                     34                       # Number of DRAM read bursts serviced by the write queue
system.mem_ctrls.mergedWrBursts                     0                       # Number of DRAM write bursts merged with an existing one
system.mem_ctrls.neitherReadNorWriteReqs            0                       # Number of requests that are neither read nor write
system.mem_ctrls.perBankRdBursts::0              1457                       # Per bank write bursts
system.mem_ctrls.perBankRdBursts::1              1299                       # Per bank write bursts
system.mem_ctrls.perBankRdBursts::2               914                       # Per bank write bursts
system.mem_ctrls.perBankRdBursts::3              1122                       # Per bank write bursts
system.mem_ctrls.perBankRdBursts::4              1210                       # Per bank write bursts
system.mem_ctrls.perBankRdBursts::5              1239                       # Per bank write bursts
system.mem_ctrls.perBankRdBursts::6              1113                       # Per bank write bursts
system.mem_ctrls.perBankRdBursts::7              1239                       # Per bank write bursts
system.mem_ctrls.perBankRdBursts::8              1133                       # Per bank write bursts
system.mem_ctrls.perBankRdBursts::9              1174                       # Per bank write bursts
system.mem_ctrls.perBankRdBursts::10             1051                       # Per bank write bursts
system.mem_ctrls.perBankRdBursts::11              891                       # Per bank write bursts
system.mem_ctrls.perBankRdBursts::12             1412                       # Per bank write bursts
system.mem_ctrls.perBankRdBursts::13             1262                       # Per bank write bursts
system.mem_ctrls.perBankRdBursts::14             1290                       # Per bank write bursts
system.mem_ctrls.perBankRdBursts::15             1295                       # Per bank write bursts
system.mem_ctrls.perBankWrBursts::0               307                       # Per bank write bursts
system.mem_ctrls.perBankWrBursts::1               186                       # Per bank write bursts
system.mem_ctrls.perBankWrBursts::2               123                       # Per bank write bursts
system.mem_ctrls.perBankWrBursts::3                85                       # Per bank write bursts
system.mem_ctrls.perBankWrBursts::4               383                       # Per bank write bursts
system.mem_ctrls.perBankWrBursts::5               393                       # Per bank write bursts
system.mem_ctrls.perBankWrBursts::6               430                       # Per bank write bursts
system.mem_ctrls.perBankWrBursts::7               303                       # Per bank write bursts
system.mem_ctrls.perBankWrBursts::8               333                       # Per bank write bursts
system.mem_ctrls.perBankWrBursts::9               352                       # Per bank write bursts
system.mem_ctrls.perBankWrBursts::10              267                       # Per bank write bursts
system.mem_ctrls.perBankWrBursts::11              276                       # Per bank write bursts
system.mem_ctrls.perBankWrBursts::12              339                       # Per bank write bursts
system.mem_ctrls.perBankWrBursts::13              211                       # Per bank write bursts
system.mem_ctrls.perBankWrBursts::14              562                       # Per bank write bursts
system.mem_ctrls.perBankWrBursts::15              436                       # Per bank write bursts
system.mem_ctrls.numRdRetry                         0                       # Number of times read queue was full causing retry
system.mem_ctrls.numWrRetry                         0                       # Number of times write queue was full causing retry
system.mem_ctrls.totGap                  3593204521500                       # Total gap between requests
system.mem_ctrls.readPktSize::0                     0                       # Read request sizes (log2)
system.mem_ctrls.readPktSize::1                     0                       # Read request sizes (log2)
system.mem_ctrls.readPktSize::2                     0                       # Read request sizes (log2)
system.mem_ctrls.readPktSize::3                     0                       # Read request sizes (log2)
system.mem_ctrls.readPktSize::4                     0                       # Read request sizes (log2)
system.mem_ctrls.readPktSize::5                     0                       # Read request sizes (log2)
system.mem_ctrls.readPktSize::6                 19135                       # Read request sizes (log2)
system.mem_ctrls.writePktSize::0                    0                       # Write request sizes (log2)
system.mem_ctrls.writePktSize::1                    0                       # Write request sizes (log2)
system.mem_ctrls.writePktSize::2                    0                       # Write request sizes (log2)
system.mem_ctrls.writePktSize::3                    0                       # Write request sizes (log2)
system.mem_ctrls.writePktSize::4                    0                       # Write request sizes (log2)
system.mem_ctrls.writePktSize::5                    0                       # Write request sizes (log2)
system.mem_ctrls.writePktSize::6                 4991                       # Write request sizes (log2)
system.mem_ctrls.rdQLenPdf::0                   18925                       # What read queue length does an incoming req see
system.mem_ctrls.rdQLenPdf::1                     175                       # What read queue length does an incoming req see
system.mem_ctrls.rdQLenPdf::2                       1                       # What read queue length does an incoming req see
system.mem_ctrls.rdQLenPdf::3                       0                       # What read queue length does an incoming req see
system.mem_ctrls.rdQLenPdf::4                       0                       # What read queue length does an incoming req see
system.mem_ctrls.rdQLenPdf::5                       0                       # What read queue length does an incoming req see
system.mem_ctrls.rdQLenPdf::6                       0                       # What read queue length does an incoming req see
system.mem_ctrls.rdQLenPdf::7                       0                       # What read queue length does an incoming req see
system.mem_ctrls.rdQLenPdf::8                       0                       # What read queue length does an incoming req see
system.mem_ctrls.rdQLenPdf::9                       0                       # What read queue length does an incoming req see
system.mem_ctrls.rdQLenPdf::10                      0                       # What read queue length does an incoming req see
system.mem_ctrls.rdQLenPdf::11                      0                       # What read queue length does an incoming req see
system.mem_ctrls.rdQLenPdf::12                      0                       # What read queue length does an incoming req see
system.mem_ctrls.rdQLenPdf::13                      0                       # What read queue length does an incoming req see
system.mem_ctrls.rdQLenPdf::14                      0                       # What read queue length does an incoming req see
system.mem_ctrls.rdQLenPdf::15                      0                       # What read queue length does an incoming req see
system.mem_ctrls.rdQLenPdf::16                      0                       # What read queue length does an incoming req see
system.mem_ctrls.rdQLenPdf::17                      0                       # What read queue length does an incoming req see
system.mem_ctrls.rdQLenPdf::18                      0                       # What read queue length does an incoming req see
system.mem_ctrls.rdQLenPdf::19                      0                       # What read queue length does an incoming req see
system.mem_ctrls.rdQLenPdf::20                      0                       # What read queue length does an incoming req see
system.mem_ctrls.rdQLenPdf::21                      0                       # What read queue length does an incoming req see
system.mem_ctrls.rdQLenPdf::22                      0                       # What read queue length does an incoming req see
system.mem_ctrls.rdQLenPdf::23                      0                       # What read queue length does an incoming req see
system.mem_ctrls.rdQLenPdf::24                      0                       # What read queue length does an incoming req see
system.mem_ctrls.rdQLenPdf::25                      0                       # What read queue length does an incoming req see
system.mem_ctrls.rdQLenPdf::26                      0                       # What read queue length does an incoming req see
system.mem_ctrls.rdQLenPdf::27                      0                       # What read queue length does an incoming req see
system.mem_ctrls.rdQLenPdf::28                      0                       # What read queue length does an incoming req see
system.mem_ctrls.rdQLenPdf::29                      0                       # What read queue length does an incoming req see
system.mem_ctrls.rdQLenPdf::30                      0                       # What read queue length does an incoming req see
system.mem_ctrls.rdQLenPdf::31                      0                       # What read queue length does an incoming req see
system.mem_ctrls.wrQLenPdf::0                       0                       # What write queue length does an incoming req see
system.mem_ctrls.wrQLenPdf::1                       0                       # What write queue length does an incoming req see
system.mem_ctrls.wrQLenPdf::2                       0                       # What write queue length does an incoming req see
system.mem_ctrls.wrQLenPdf::3                       0                       # What write queue length does an incoming req see
system.mem_ctrls.wrQLenPdf::4                       0                       # What write queue length does an incoming req see
system.mem_ctrls.wrQLenPdf::5                       0                       # What write queue length does an incoming req see
system.mem_ctrls.wrQLenPdf::6                       0                       # What write queue length does an incoming req see
system.mem_ctrls.wrQLenPdf::7                       0                       # What write queue length does an incoming req see
system.mem_ctrls.wrQLenPdf::8                       0                       # What write queue length does an incoming req see
system.mem_ctrls.wrQLenPdf::9                       0                       # What write queue length does an incoming req see
system.mem_ctrls.wrQLenPdf::10                      0                       # What write queue length does an incoming req see
system.mem_ctrls.wrQLenPdf::11                      0                       # What write queue length does an incoming req see
system.mem_ctrls.wrQLenPdf::12                      0                       # What write queue length does an incoming req see
system.mem_ctrls.wrQLenPdf::13                      0                       # What write queue length does an incoming req see
system.mem_ctrls.wrQLenPdf::14                      0                       # What write queue length does an incoming req see
system.mem_ctrls.wrQLenPdf::15                    225                       # What write queue length does an incoming req see
system.mem_ctrls.wrQLenPdf::16                    250                       # What write queue length does an incoming req see
system.mem_ctrls.wrQLenPdf::17                    286                       # What write queue length does an incoming req see
system.mem_ctrls.wrQLenPdf::18                    284                       # What write queue length does an incoming req see
system.mem_ctrls.wrQLenPdf::19                    287                       # What write queue length does an incoming req see
system.mem_ctrls.wrQLenPdf::20                    351                       # What write queue length does an incoming req see
system.mem_ctrls.wrQLenPdf::21                    285                       # What write queue length does an incoming req see
system.mem_ctrls.wrQLenPdf::22                    285                       # What write queue length does an incoming req see
system.mem_ctrls.wrQLenPdf::23                    299                       # What write queue length does an incoming req see
system.mem_ctrls.wrQLenPdf::24                    272                       # What write queue length does an incoming req see
system.mem_ctrls.wrQLenPdf::25                    280                       # What write queue length does an incoming req see
system.mem_ctrls.wrQLenPdf::26                    290                       # What write queue length does an incoming req see
system.mem_ctrls.wrQLenPdf::27                    269                       # What write queue length does an incoming req see
system.mem_ctrls.wrQLenPdf::28                    267                       # What write queue length does an incoming req see
system.mem_ctrls.wrQLenPdf::29                    267                       # What write queue length does an incoming req see
system.mem_ctrls.wrQLenPdf::30                    263                       # What write queue length does an incoming req see
system.mem_ctrls.wrQLenPdf::31                    264                       # What write queue length does an incoming req see
system.mem_ctrls.wrQLenPdf::32                    260                       # What write queue length does an incoming req see
system.mem_ctrls.wrQLenPdf::33                      3                       # What write queue length does an incoming req see
system.mem_ctrls.wrQLenPdf::34                      1                       # What write queue length does an incoming req see
system.mem_ctrls.wrQLenPdf::35                      1                       # What write queue length does an incoming req see
system.mem_ctrls.wrQLenPdf::36                      1                       # What write queue length does an incoming req see
system.mem_ctrls.wrQLenPdf::37                      1                       # What write queue length does an incoming req see
system.mem_ctrls.wrQLenPdf::38                      0                       # What write queue length does an incoming req see
system.mem_ctrls.wrQLenPdf::39                      0                       # What write queue length does an incoming req see
system.mem_ctrls.wrQLenPdf::40                      0                       # What write queue length does an incoming req see
system.mem_ctrls.wrQLenPdf::41                      0                       # What write queue length does an incoming req see
system.mem_ctrls.wrQLenPdf::42                      0                       # What write queue length does an incoming req see
system.mem_ctrls.wrQLenPdf::43                      0                       # What write queue length does an incoming req see
system.mem_ctrls.wrQLenPdf::44                      0                       # What write queue length does an incoming req see
system.mem_ctrls.wrQLenPdf::45                      0                       # What write queue length does an incoming req see
system.mem_ctrls.wrQLenPdf::46                      0                       # What write queue length does an incoming req see
system.mem_ctrls.wrQLenPdf::47                      0                       # What write queue length does an incoming req see
system.mem_ctrls.wrQLenPdf::48                      0                       # What write queue length does an incoming req see
system.mem_ctrls.wrQLenPdf::49                      0                       # What write queue length does an incoming req see
system.mem_ctrls.wrQLenPdf::50                      0                       # What write queue length does an incoming req see
system.mem_ctrls.wrQLenPdf::51                      0                       # What write queue length does an incoming req see
system.mem_ctrls.wrQLenPdf::52                      0                       # What write queue length does an incoming req see
system.mem_ctrls.wrQLenPdf::53                      0                       # What write queue length does an incoming req see
system.mem_ctrls.wrQLenPdf::54                      0                       # What write queue length does an incoming req see
system.mem_ctrls.wrQLenPdf::55                      0                       # What write queue length does an incoming req see
system.mem_ctrls.wrQLenPdf::56                      0                       # What write queue length does an incoming req see
system.mem_ctrls.wrQLenPdf::57                      0                       # What write queue length does an incoming req see
system.mem_ctrls.wrQLenPdf::58                      0                       # What write queue length does an incoming req see
system.mem_ctrls.wrQLenPdf::59                      0                       # What write queue length does an incoming req see
system.mem_ctrls.wrQLenPdf::60                      0                       # What write queue length does an incoming req see
system.mem_ctrls.wrQLenPdf::61                      0                       # What write queue length does an incoming req see
system.mem_ctrls.wrQLenPdf::62                      0                       # What write queue length does an incoming req see
system.mem_ctrls.wrQLenPdf::63                      0                       # What write queue length does an incoming req see
system.mem_ctrls.bytesPerActivate::samples         6289                       # Bytes accessed per row activation
system.mem_ctrls.bytesPerActivate::mean    245.080617                       # Bytes accessed per row activation
system.mem_ctrls.bytesPerActivate::gmean   136.142698                       # Bytes accessed per row activation
system.mem_ctrls.bytesPerActivate::stdev   317.322057                       # Bytes accessed per row activation
system.mem_ctrls.bytesPerActivate::0-127         3245     51.60%     51.60% # Bytes accessed per row activation
system.mem_ctrls.bytesPerActivate::128-255         1482     23.56%     75.16% # Bytes accessed per row activation
system.mem_ctrls.bytesPerActivate::256-383          371      5.90%     81.06% # Bytes accessed per row activation
system.mem_ctrls.bytesPerActivate::384-511          181      2.88%     83.94% # Bytes accessed per row activation
system.mem_ctrls.bytesPerActivate::512-639           95      1.51%     85.45% # Bytes accessed per row activation
system.mem_ctrls.bytesPerActivate::640-767           80      1.27%     86.72% # Bytes accessed per row activation
system.mem_ctrls.bytesPerActivate::768-895           50      0.80%     87.52% # Bytes accessed per row activation
system.mem_ctrls.bytesPerActivate::896-1023           69      1.10%     88.62% # Bytes accessed per row activation
system.mem_ctrls.bytesPerActivate::1024-1151          716     11.38%    100.00% # Bytes accessed per row activation
system.mem_ctrls.bytesPerActivate::total         6289                       # Bytes accessed per row activation
system.mem_ctrls.rdPerTurnAround::samples          260                       # Reads before turning the bus around for writes
system.mem_ctrls.rdPerTurnAround::mean      80.023077                       # Reads before turning the bus around for writes
system.mem_ctrls.rdPerTurnAround::stdev    287.230202                       # Reads before turning the bus around for writes
system.mem_ctrls.rdPerTurnAround::0-127           229     88.08%     88.08% # Reads before turning the bus around for writes
system.mem_ctrls.rdPerTurnAround::128-255           11      4.23%     92.31% # Reads before turning the bus around for writes
system.mem_ctrls.rdPerTurnAround::256-383            7      2.69%     95.00% # Reads before turning the bus around for writes
system.mem_ctrls.rdPerTurnAround::384-511            3      1.15%     96.15% # Reads before turning the bus around for writes
system.mem_ctrls.rdPerTurnAround::512-639            3      1.15%     97.31% # Reads before turning the bus around for writes
system.mem_ctrls.rdPerTurnAround::640-767            2      0.77%     98.08% # Reads before turning the bus around for writes
system.mem_ctrls.rdPerTurnAround::1024-1151            1      0.38%     98.46% # Reads before turning the bus around for writes
system.mem_ctrls.rdPerTurnAround::1536-1663            1      0.38%     98.85% # Reads before turning the bus around for writes
system.mem_ctrls.rdPerTurnAround::1664-1791            1      0.38%     99.23% # Reads before turning the bus around for writes
system.mem_ctrls.rdPerTurnAround::1792-1919            1      0.38%     99.62% # Reads before turning the bus around for writes
system.mem_ctrls.rdPerTurnAround::2816-2943            1      0.38%    100.00% # Reads before turning the bus around for writes
system.mem_ctrls.rdPerTurnAround::total           260                       # Reads before turning the bus around for writes
system.mem_ctrls.wrPerTurnAround::samples          260                       # Writes before turning the bus around for reads
system.mem_ctrls.wrPerTurnAround::mean      19.176923                       # Writes before turning the bus around for reads
system.mem_ctrls.wrPerTurnAround::gmean     19.083766                       # Writes before turning the bus around for reads
system.mem_ctrls.wrPerTurnAround::stdev      1.894782                       # Writes before turning the bus around for reads
system.mem_ctrls.wrPerTurnAround::16               32     12.31%     12.31% # Writes before turning the bus around for reads
system.mem_ctrls.wrPerTurnAround::17                2      0.77%     13.08% # Writes before turning the bus around for reads
system.mem_ctrls.wrPerTurnAround::18               77     29.62%     42.69% # Writes before turning the bus around for reads
system.mem_ctrls.wrPerTurnAround::19               44     16.92%     59.62% # Writes before turning the bus around for reads
system.mem_ctrls.wrPerTurnAround::20               20      7.69%     67.31% # Writes before turning the bus around for reads
system.mem_ctrls.wrPerTurnAround::21               65     25.00%     92.31% # Writes before turning the bus around for reads
system.mem_ctrls.wrPerTurnAround::22               11      4.23%     96.54% # Writes before turning the bus around for reads
system.mem_ctrls.wrPerTurnAround::23                7      2.69%     99.23% # Writes before turning the bus around for reads
system.mem_ctrls.wrPerTurnAround::24                1      0.38%     99.62% # Writes before turning the bus around for reads
system.mem_ctrls.wrPerTurnAround::26                1      0.38%    100.00% # Writes before turning the bus around for reads
system.mem_ctrls.wrPerTurnAround::total           260                       # Writes before turning the bus around for reads
system.mem_ctrls.totQLat                    144395750                       # Total ticks spent queuing
system.mem_ctrls.totMemAccLat               502539500                       # Total ticks spent from burst creation until serviced by the DRAM
system.mem_ctrls.totBusLat                   95505000                       # Total ticks spent in databus transfers
system.mem_ctrls.avgQLat                      7559.59                       # Average queueing delay per DRAM burst
system.mem_ctrls.avgBusLat                    5000.00                       # Average bus latency per DRAM burst
system.mem_ctrls.avgMemAccLat                26309.59                       # Average memory access latency per DRAM burst
system.mem_ctrls.avgRdBW                         0.34                       # Average DRAM read bandwidth in MiByte/s
system.mem_ctrls.avgWrBW                         0.09                       # Average achieved write bandwidth in MiByte/s
system.mem_ctrls.avgRdBWSys                      0.34                       # Average system read bandwidth in MiByte/s
system.mem_ctrls.avgWrBWSys                      0.09                       # Average system write bandwidth in MiByte/s
system.mem_ctrls.peakBW                      12800.00                       # Theoretical peak bandwidth in MiByte/s
system.mem_ctrls.busUtil                         0.00                       # Data bus utilization in percentage
system.mem_ctrls.busUtilRead                     0.00                       # Data bus utilization in percentage for reads
system.mem_ctrls.busUtilWrite                    0.00                       # Data bus utilization in percentage for writes
system.mem_ctrls.avgRdQLen                       1.00                       # Average read queue length when enqueuing
system.mem_ctrls.avgWrQLen                      23.56                       # Average write queue length when enqueuing
system.mem_ctrls.readRowHits                    14192                       # Number of row buffer hits during reads
system.mem_ctrls.writeRowHits                    3603                       # Number of row buffer hits during writes
system.mem_ctrls.readRowHitRate                 74.30                       # Row buffer hit rate for reads
system.mem_ctrls.writeRowHitRate                72.19                       # Row buffer hit rate for writes
system.mem_ctrls.avgGap                  148934946.59                       # Average gap between requests
system.mem_ctrls.pageHitRate                    73.86                       # Row buffer hit rate, read and write combined
system.mem_ctrls_0.actEnergy                 40892040                       # Energy for activate commands per rank (pJ)
system.mem_ctrls_0.preEnergy                 22312125                       # Energy for precharge commands per rank (pJ)
system.mem_ctrls_0.readEnergy               139167600                       # Energy for read commands per rank (pJ)
system.mem_ctrls_0.writeEnergy               14709600                       # Energy for write commands per rank (pJ)
system.mem_ctrls_0.refreshEnergy         234913018080                       # Energy for refresh commands per rank (pJ)
system.mem_ctrls_0.actBackEnergy          81813271635                       # Energy for active background per rank (pJ)
system.mem_ctrls_0.preBackEnergy         2086199544750                       # Energy for precharge background per rank (pJ)
system.mem_ctrls_0.totalEnergy           2403142915830                       # Total energy per rank (pJ)
system.mem_ctrls_0.averagePower            668.169024                       # Core power per rank (mW)
system.mem_ctrls_0.memoryStateTime::IDLE 3469413028500                       # Time in different power states
system.mem_ctrls_0.memoryStateTime::REF  119984800000                       # Time in different power states
system.mem_ctrls_0.memoryStateTime::PRE_PDN            0                       # Time in different power states
system.mem_ctrls_0.memoryStateTime::ACT    3800160250                       # Time in different power states
system.mem_ctrls_0.memoryStateTime::ACT_PDN            0                       # Time in different power states
system.mem_ctrls_1.actEnergy                 37883160                       # Energy for activate commands per rank (pJ)
system.mem_ctrls_1.preEnergy                 20670375                       # Energy for precharge commands per rank (pJ)
system.mem_ctrls_1.readEnergy               132990000                       # Energy for read commands per rank (pJ)
system.mem_ctrls_1.writeEnergy               18254160                       # Energy for write commands per rank (pJ)
system.mem_ctrls_1.refreshEnergy         234913018080                       # Energy for refresh commands per rank (pJ)
system.mem_ctrls_1.actBackEnergy          81747334890                       # Energy for active background per rank (pJ)
system.mem_ctrls_1.preBackEnergy         2086257375750                       # Energy for precharge background per rank (pJ)
system.mem_ctrls_1.totalEnergy           2403127526415                       # Total energy per rank (pJ)
system.mem_ctrls_1.averagePower            668.164747                       # Core power per rank (mW)
system.mem_ctrls_1.memoryStateTime::IDLE 3469386127250                       # Time in different power states
system.mem_ctrls_1.memoryStateTime::REF  119984800000                       # Time in different power states
system.mem_ctrls_1.memoryStateTime::PRE_PDN            0                       # Time in different power states
system.mem_ctrls_1.memoryStateTime::ACT    3827709000                       # Time in different power states
system.mem_ctrls_1.memoryStateTime::ACT_PDN            0                       # Time in different power states
system.cpu_voltage_domain.voltage                   1                       # Voltage in Volts
system.cpu_clk_domain.clock                       500                       # Clock period in ticks
system.cpu0.apic_clk_domain.clock                8000                       # Clock period in ticks
system.cpu0.numCycles                      7187175794                       # number of cpu cycles simulated
system.cpu0.numWorkItemsStarted                     0                       # number of work items this cpu started
system.cpu0.numWorkItemsCompleted                   0                       # number of work items this cpu completed
system.cpu0.kern.inst.arm                           0                       # number of arm instructions executed
system.cpu0.kern.inst.quiesce                       0                       # number of quiesce instructions executed
system.cpu0.committedInsts                    2999919                       # Number of instructions committed
system.cpu0.committedOps                      6301618                       # Number of ops (including micro ops) committed
system.cpu0.num_int_alu_accesses              6195726                       # Number of integer alu accesses
system.cpu0.num_fp_alu_accesses                  1837                       # Number of float alu accesses
system.cpu0.num_func_calls                     181096                       # number of times a function call or return occured
system.cpu0.num_conditional_control_insts       416446                       # number of instructions that are conditional controls
system.cpu0.num_int_insts                     6195726                       # number of integer instructions
system.cpu0.num_fp_insts                         1837                       # number of float instructions
system.cpu0.num_int_register_reads           12549335                       # number of times the integer registers were read
system.cpu0.num_int_register_writes           5076562                       # number of times the integer registers were written
system.cpu0.num_fp_register_reads                3081                       # number of times the floating registers were read
system.cpu0.num_fp_register_writes               1457                       # number of times the floating registers were written
system.cpu0.num_cc_register_reads             3312560                       # number of times the CC registers were read
system.cpu0.num_cc_register_writes            1950229                       # number of times the CC registers were written
system.cpu0.num_mem_refs                      1496624                       # number of memory refs
system.cpu0.num_load_insts                     923700                       # Number of load instructions
system.cpu0.num_store_insts                    572924                       # Number of store instructions
system.cpu0.num_idle_cycles              7174282770.096883                       # Number of idle cycles
system.cpu0.num_busy_cycles              12893023.903117                       # Number of busy cycles
system.cpu0.not_idle_fraction                0.001794                       # Percentage of non-idle cycles
system.cpu0.idle_fraction                    0.998206                       # Percentage of idle cycles
system.cpu0.Branches                           652634                       # Number of branches fetched
system.cpu0.op_class::No_OpClass                71847      1.14%      1.14% # Class of executed instruction
system.cpu0.op_class::IntAlu                  4699886     74.58%     75.72% # Class of executed instruction
system.cpu0.op_class::IntMult                   12351      0.20%     75.92% # Class of executed instruction
system.cpu0.op_class::IntDiv                    19632      0.31%     76.23% # Class of executed instruction
system.cpu0.op_class::FloatAdd                   1366      0.02%     76.25% # Class of executed instruction
system.cpu0.op_class::FloatCmp                      0      0.00%     76.25% # Class of executed instruction
system.cpu0.op_class::FloatCvt                      0      0.00%     76.25% # Class of executed instruction
system.cpu0.op_class::FloatMult                     0      0.00%     76.25% # Class of executed instruction
system.cpu0.op_class::FloatDiv                      0      0.00%     76.25% # Class of executed instruction
system.cpu0.op_class::FloatSqrt                     0      0.00%     76.25% # Class of executed instruction
system.cpu0.op_class::SimdAdd                       0      0.00%     76.25% # Class of executed instruction
system.cpu0.op_class::SimdAddAcc                    0      0.00%     76.25% # Class of executed instruction
system.cpu0.op_class::SimdAlu                       0      0.00%     76.25% # Class of executed instruction
system.cpu0.op_class::SimdCmp                       0      0.00%     76.25% # Class of executed instruction
system.cpu0.op_class::SimdCvt                       0      0.00%     76.25% # Class of executed instruction
system.cpu0.op_class::SimdMisc                      0      0.00%     76.25% # Class of executed instruction
system.cpu0.op_class::SimdMult                      0      0.00%     76.25% # Class of executed instruction
system.cpu0.op_class::SimdMultAcc                   0      0.00%     76.25% # Class of executed instruction
system.cpu0.op_class::SimdShift                     0      0.00%     76.25% # Class of executed instruction
system.cpu0.op_class::SimdShiftAcc                  0      0.00%     76.25% # Class of executed instruction
system.cpu0.op_class::SimdSqrt                      0      0.00%     76.25% # Class of executed instruction
system.cpu0.op_class::SimdFloatAdd                  0      0.00%     76.25% # Class of executed instruction
system.cpu0.op_class::SimdFloatAlu                  0      0.00%     76.25% # Class of executed instruction
system.cpu0.op_class::SimdFloatCmp                  0      0.00%     76.25% # Class of executed instruction
system.cpu0.op_class::SimdFloatCvt                  0      0.00%     76.25% # Class of executed instruction
system.cpu0.op_class::SimdFloatDiv                  0      0.00%     76.25% # Class of executed instruction
system.cpu0.op_class::SimdFloatMisc                 0      0.00%     76.25% # Class of executed instruction
system.cpu0.op_class::SimdFloatMult                 0      0.00%     76.25% # Class of executed instruction
system.cpu0.op_class::SimdFloatMultAcc              0      0.00%     76.25% # Class of executed instruction
system.cpu0.op_class::SimdFloatSqrt                 0      0.00%     76.25% # Class of executed instruction
system.cpu0.op_class::MemRead                  923700     14.66%     90.91% # Class of executed instruction
system.cpu0.op_class::MemWrite                 572924      9.09%    100.00% # Class of executed instruction
system.cpu0.op_class::IprAccess                     0      0.00%    100.00% # Class of executed instruction
system.cpu0.op_class::InstPrefetch                  0      0.00%    100.00% # Class of executed instruction
system.cpu0.op_class::total                   6301706                       # Class of executed instruction
system.cpu1.apic_clk_domain.clock                8000                       # Clock period in ticks
system.cpu1.numCycles                      7186837442                       # number of cpu cycles simulated
system.cpu1.numWorkItemsStarted                     0                       # number of work items this cpu started
system.cpu1.numWorkItemsCompleted                   0                       # number of work items this cpu completed
system.cpu1.kern.inst.arm                           0                       # number of arm instructions executed
system.cpu1.kern.inst.quiesce                       0                       # number of quiesce instructions executed
system.cpu1.committedInsts                   19185044                       # Number of instructions committed
system.cpu1.committedOps                     33805286                       # Number of ops (including micro ops) committed
system.cpu1.num_int_alu_accesses             28421988                       # Number of integer alu accesses
system.cpu1.num_fp_alu_accesses               8399451                       # Number of float alu accesses
system.cpu1.num_func_calls                     578612                       # number of times a function call or return occured
system.cpu1.num_conditional_control_insts      2025146                       # number of instructions that are conditional controls
system.cpu1.num_int_insts                    28421988                       # number of integer instructions
system.cpu1.num_fp_insts                      8399451                       # number of float instructions
system.cpu1.num_int_register_reads           54790641                       # number of times the integer registers were read
system.cpu1.num_int_register_writes          21589020                       # number of times the integer registers were written
system.cpu1.num_fp_register_reads            14064524                       # number of times the floating registers were read
system.cpu1.num_fp_register_writes            7474376                       # number of times the floating registers were written
system.cpu1.num_cc_register_reads            13750271                       # number of times the CC registers were read
system.cpu1.num_cc_register_writes           10181889                       # number of times the CC registers were written
system.cpu1.num_mem_refs                      7576537                       # number of memory refs
system.cpu1.num_load_insts                    5654604                       # Number of load instructions
system.cpu1.num_store_insts                   1921933                       # Number of store instructions
system.cpu1.num_idle_cycles              7115812919.913606                       # Number of idle cycles
system.cpu1.num_busy_cycles              71024522.086394                       # Number of busy cycles
system.cpu1.not_idle_fraction                0.009883                       # Percentage of non-idle cycles
system.cpu1.idle_fraction                    0.990117                       # Percentage of idle cycles
system.cpu1.Branches                          2752223                       # Number of branches fetched
system.cpu1.op_class::No_OpClass               111787      0.33%      0.33% # Class of executed instruction
system.cpu1.op_class::IntAlu                 22246618     65.81%     66.14% # Class of executed instruction
system.cpu1.op_class::IntMult                  215498      0.64%     66.78% # Class of executed instruction
system.cpu1.op_class::IntDiv                    36593      0.11%     66.88% # Class of executed instruction
system.cpu1.op_class::FloatAdd                3618309     10.70%     77.59% # Class of executed instruction
system.cpu1.op_class::FloatCmp                      0      0.00%     77.59% # Class of executed instruction
system.cpu1.op_class::FloatCvt                      0      0.00%     77.59% # Class of executed instruction
system.cpu1.op_class::FloatMult                     0      0.00%     77.59% # Class of executed instruction
system.cpu1.op_class::FloatDiv                      0      0.00%     77.59% # Class of executed instruction
system.cpu1.op_class::FloatSqrt                     0      0.00%     77.59% # Class of executed instruction
system.cpu1.op_class::SimdAdd                       0      0.00%     77.59% # Class of executed instruction
system.cpu1.op_class::SimdAddAcc                    0      0.00%     77.59% # Class of executed instruction
system.cpu1.op_class::SimdAlu                       0      0.00%     77.59% # Class of executed instruction
system.cpu1.op_class::SimdCmp                       0      0.00%     77.59% # Class of executed instruction
system.cpu1.op_class::SimdCvt                       0      0.00%     77.59% # Class of executed instruction
system.cpu1.op_class::SimdMisc                      0      0.00%     77.59% # Class of executed instruction
system.cpu1.op_class::SimdMult                      0      0.00%     77.59% # Class of executed instruction
system.cpu1.op_class::SimdMultAcc                   0      0.00%     77.59% # Class of executed instruction
system.cpu1.op_class::SimdShift                     0      0.00%     77.59% # Class of executed instruction
system.cpu1.op_class::SimdShiftAcc                  0      0.00%     77.59% # Class of executed instruction
system.cpu1.op_class::SimdSqrt                      0      0.00%     77.59% # Class of executed instruction
system.cpu1.op_class::SimdFloatAdd                  0      0.00%     77.59% # Class of executed instruction
system.cpu1.op_class::SimdFloatAlu                  0      0.00%     77.59% # Class of executed instruction
system.cpu1.op_class::SimdFloatCmp                  0      0.00%     77.59% # Class of executed instruction
system.cpu1.op_class::SimdFloatCvt                  0      0.00%     77.59% # Class of executed instruction
system.cpu1.op_class::SimdFloatDiv                  0      0.00%     77.59% # Class of executed instruction
system.cpu1.op_class::SimdFloatMisc                 0      0.00%     77.59% # Class of executed instruction
system.cpu1.op_class::SimdFloatMult                 0      0.00%     77.59% # Class of executed instruction
system.cpu1.op_class::SimdFloatMultAcc              0      0.00%     77.59% # Class of executed instruction
system.cpu1.op_class::SimdFloatSqrt                 0      0.00%     77.59% # Class of executed instruction
system.cpu1.op_class::MemRead                 5654604     16.73%     94.31% # Class of executed instruction
system.cpu1.op_class::MemWrite                1921933      5.69%    100.00% # Class of executed instruction
system.cpu1.op_class::IprAccess                     0      0.00%    100.00% # Class of executed instruction
system.cpu1.op_class::InstPrefetch                  0      0.00%    100.00% # Class of executed instruction
system.cpu1.op_class::total                  33805342                       # Class of executed instruction
system.cpu2.apic_clk_domain.clock                8000                       # Clock period in ticks
system.cpu2.numCycles                      7187925697                       # number of cpu cycles simulated
system.cpu2.numWorkItemsStarted                     0                       # number of work items this cpu started
system.cpu2.numWorkItemsCompleted                   0                       # number of work items this cpu completed
system.cpu2.kern.inst.arm                           0                       # number of arm instructions executed
system.cpu2.kern.inst.quiesce                       0                       # number of quiesce instructions executed
system.cpu2.committedInsts                 1994018747                       # Number of instructions committed
system.cpu2.committedOps                   3391965785                       # Number of ops (including micro ops) committed
system.cpu2.num_int_alu_accesses           2756627570                       # Number of integer alu accesses
system.cpu2.num_fp_alu_accesses            1010088517                       # Number of float alu accesses
system.cpu2.num_func_calls                   49907247                       # number of times a function call or return occured
system.cpu2.num_conditional_control_insts    199773487                       # number of instructions that are conditional controls
system.cpu2.num_int_insts                  2756627570                       # number of integer instructions
system.cpu2.num_fp_insts                   1010088517                       # number of float instructions
system.cpu2.num_int_register_reads         5216414451                       # number of times the integer registers were read
system.cpu2.num_int_register_writes        2051841241                       # number of times the integer registers were written
system.cpu2.num_fp_register_reads          1701898740                       # number of times the floating registers were read
system.cpu2.num_fp_register_writes          899765659                       # number of times the floating registers were written
system.cpu2.num_cc_register_reads          1288194933                       # number of times the CC registers were read
system.cpu2.num_cc_register_writes         1039078679                       # number of times the CC registers were written
system.cpu2.num_mem_refs                    738021557                       # number of memory refs
system.cpu2.num_load_insts                  571676691                       # Number of load instructions
system.cpu2.num_store_insts                 166344866                       # Number of store instructions
system.cpu2.num_idle_cycles              63936357.747869                       # Number of idle cycles
system.cpu2.num_busy_cycles              7123989339.252131                       # Number of busy cycles
system.cpu2.not_idle_fraction                0.991105                       # Percentage of non-idle cycles
system.cpu2.idle_fraction                    0.008895                       # Percentage of idle cycles
system.cpu2.Branches                        261084987                       # Number of branches fetched
system.cpu2.op_class::No_OpClass              1505767      0.04%      0.04% # Class of executed instruction
system.cpu2.op_class::IntAlu               2188568527     64.52%     64.57% # Class of executed instruction
system.cpu2.op_class::IntMult                24039761      0.71%     65.28% # Class of executed instruction
system.cpu2.op_class::IntDiv                   210962      0.01%     65.28% # Class of executed instruction
system.cpu2.op_class::FloatAdd              439619365     12.96%     78.24% # Class of executed instruction
system.cpu2.op_class::FloatCmp                      0      0.00%     78.24% # Class of executed instruction
system.cpu2.op_class::FloatCvt                      0      0.00%     78.24% # Class of executed instruction
system.cpu2.op_class::FloatMult                     0      0.00%     78.24% # Class of executed instruction
system.cpu2.op_class::FloatDiv                      0      0.00%     78.24% # Class of executed instruction
system.cpu2.op_class::FloatSqrt                     0      0.00%     78.24% # Class of executed instruction
system.cpu2.op_class::SimdAdd                       0      0.00%     78.24% # Class of executed instruction
system.cpu2.op_class::SimdAddAcc                    0      0.00%     78.24% # Class of executed instruction
system.cpu2.op_class::SimdAlu                       0      0.00%     78.24% # Class of executed instruction
system.cpu2.op_class::SimdCmp                       0      0.00%     78.24% # Class of executed instruction
system.cpu2.op_class::SimdCvt                       0      0.00%     78.24% # Class of executed instruction
system.cpu2.op_class::SimdMisc                      0      0.00%     78.24% # Class of executed instruction
system.cpu2.op_class::SimdMult                      0      0.00%     78.24% # Class of executed instruction
system.cpu2.op_class::SimdMultAcc                   0      0.00%     78.24% # Class of executed instruction
system.cpu2.op_class::SimdShift                     0      0.00%     78.24% # Class of executed instruction
system.cpu2.op_class::SimdShiftAcc                  0      0.00%     78.24% # Class of executed instruction
system.cpu2.op_class::SimdSqrt                      0      0.00%     78.24% # Class of executed instruction
system.cpu2.op_class::SimdFloatAdd                  0      0.00%     78.24% # Class of executed instruction
system.cpu2.op_class::SimdFloatAlu                  0      0.00%     78.24% # Class of executed instruction
system.cpu2.op_class::SimdFloatCmp                  0      0.00%     78.24% # Class of executed instruction
system.cpu2.op_class::SimdFloatCvt                  0      0.00%     78.24% # Class of executed instruction
system.cpu2.op_class::SimdFloatDiv                  0      0.00%     78.24% # Class of executed instruction
system.cpu2.op_class::SimdFloatMisc                 0      0.00%     78.24% # Class of executed instruction
system.cpu2.op_class::SimdFloatMult                 0      0.00%     78.24% # Class of executed instruction
system.cpu2.op_class::SimdFloatMultAcc              0      0.00%     78.24% # Class of executed instruction
system.cpu2.op_class::SimdFloatSqrt                 0      0.00%     78.24% # Class of executed instruction
system.cpu2.op_class::MemRead               571676691     16.85%     95.10% # Class of executed instruction
system.cpu2.op_class::MemWrite              166344866      4.90%    100.00% # Class of executed instruction
system.cpu2.op_class::IprAccess                     0      0.00%    100.00% # Class of executed instruction
system.cpu2.op_class::InstPrefetch                  0      0.00%    100.00% # Class of executed instruction
system.cpu2.op_class::total                3391965939                       # Class of executed instruction
system.cpu3.apic_clk_domain.clock                8000                       # Clock period in ticks
system.cpu3.numCycles                      7181990409                       # number of cpu cycles simulated
system.cpu3.numWorkItemsStarted                     0                       # number of work items this cpu started
system.cpu3.numWorkItemsCompleted                   0                       # number of work items this cpu completed
system.cpu3.kern.inst.arm                           0                       # number of arm instructions executed
system.cpu3.kern.inst.quiesce                       0                       # number of quiesce instructions executed
system.cpu3.committedInsts                    2585182                       # Number of instructions committed
system.cpu3.committedOps                      5576921                       # Number of ops (including micro ops) committed
system.cpu3.num_int_alu_accesses              5453508                       # Number of integer alu accesses
system.cpu3.num_fp_alu_accesses                     0                       # Number of float alu accesses
system.cpu3.num_func_calls                     152999                       # number of times a function call or return occured
system.cpu3.num_conditional_control_insts       394556                       # number of instructions that are conditional controls
system.cpu3.num_int_insts                     5453508                       # number of integer instructions
system.cpu3.num_fp_insts                            0                       # number of float instructions
system.cpu3.num_int_register_reads           11076168                       # number of times the integer registers were read
system.cpu3.num_int_register_writes           4528119                       # number of times the integer registers were written
system.cpu3.num_fp_register_reads                   0                       # number of times the floating registers were read
system.cpu3.num_fp_register_writes                  0                       # number of times the floating registers were written
system.cpu3.num_cc_register_reads             3154358                       # number of times the CC registers were read
system.cpu3.num_cc_register_writes            1657756                       # number of times the CC registers were written
system.cpu3.num_mem_refs                      1324373                       # number of memory refs
system.cpu3.num_load_insts                     825157                       # Number of load instructions
system.cpu3.num_store_insts                    499216                       # Number of store instructions
system.cpu3.num_idle_cycles              7171103775.507161                       # Number of idle cycles
system.cpu3.num_busy_cycles              10886633.492839                       # Number of busy cycles
system.cpu3.not_idle_fraction                0.001516                       # Percentage of non-idle cycles
system.cpu3.idle_fraction                    0.998484                       # Percentage of idle cycles
system.cpu3.Branches                           597175                       # Number of branches fetched
system.cpu3.op_class::No_OpClass               105218      1.89%      1.89% # Class of executed instruction
system.cpu3.op_class::IntAlu                  4098913     73.50%     75.38% # Class of executed instruction
system.cpu3.op_class::IntMult                   11210      0.20%     75.59% # Class of executed instruction
system.cpu3.op_class::IntDiv                    37213      0.67%     76.25% # Class of executed instruction
system.cpu3.op_class::FloatAdd                      0      0.00%     76.25% # Class of executed instruction
system.cpu3.op_class::FloatCmp                      0      0.00%     76.25% # Class of executed instruction
system.cpu3.op_class::FloatCvt                      0      0.00%     76.25% # Class of executed instruction
system.cpu3.op_class::FloatMult                     0      0.00%     76.25% # Class of executed instruction
system.cpu3.op_class::FloatDiv                      0      0.00%     76.25% # Class of executed instruction
system.cpu3.op_class::FloatSqrt                     0      0.00%     76.25% # Class of executed instruction
system.cpu3.op_class::SimdAdd                       0      0.00%     76.25% # Class of executed instruction
system.cpu3.op_class::SimdAddAcc                    0      0.00%     76.25% # Class of executed instruction
system.cpu3.op_class::SimdAlu                       0      0.00%     76.25% # Class of executed instruction
system.cpu3.op_class::SimdCmp                       0      0.00%     76.25% # Class of executed instruction
system.cpu3.op_class::SimdCvt                       0      0.00%     76.25% # Class of executed instruction
system.cpu3.op_class::SimdMisc                      0      0.00%     76.25% # Class of executed instruction
system.cpu3.op_class::SimdMult                      0      0.00%     76.25% # Class of executed instruction
system.cpu3.op_class::SimdMultAcc                   0      0.00%     76.25% # Class of executed instruction
system.cpu3.op_class::SimdShift                     0      0.00%     76.25% # Class of executed instruction
system.cpu3.op_class::SimdShiftAcc                  0      0.00%     76.25% # Class of executed instruction
system.cpu3.op_class::SimdSqrt                      0      0.00%     76.25% # Class of executed instruction
system.cpu3.op_class::SimdFloatAdd                  0      0.00%     76.25% # Class of executed instruction
system.cpu3.op_class::SimdFloatAlu                  0      0.00%     76.25% # Class of executed instruction
system.cpu3.op_class::SimdFloatCmp                  0      0.00%     76.25% # Class of executed instruction
system.cpu3.op_class::SimdFloatCvt                  0      0.00%     76.25% # Class of executed instruction
system.cpu3.op_class::SimdFloatDiv                  0      0.00%     76.25% # Class of executed instruction
system.cpu3.op_class::SimdFloatMisc                 0      0.00%     76.25% # Class of executed instruction
system.cpu3.op_class::SimdFloatMult                 0      0.00%     76.25% # Class of executed instruction
system.cpu3.op_class::SimdFloatMultAcc              0      0.00%     76.25% # Class of executed instruction
system.cpu3.op_class::SimdFloatSqrt                 0      0.00%     76.25% # Class of executed instruction
system.cpu3.op_class::MemRead                  825157     14.80%     91.05% # Class of executed instruction
system.cpu3.op_class::MemWrite                 499216      8.95%    100.00% # Class of executed instruction
system.cpu3.op_class::IprAccess                     0      0.00%    100.00% # Class of executed instruction
system.cpu3.op_class::InstPrefetch                  0      0.00%    100.00% # Class of executed instruction
system.cpu3.op_class::total                   5576927                       # Class of executed instruction
system.iobus.trans_dist::ReadReq                  116                       # Transaction distribution
system.iobus.trans_dist::ReadResp                 116                       # Transaction distribution
system.iobus.trans_dist::WriteReq                3730                       # Transaction distribution
system.iobus.trans_dist::WriteResp               3730                       # Transaction distribution
system.iobus.trans_dist::MessageReq                19                       # Transaction distribution
system.iobus.trans_dist::MessageResp               19                       # Transaction distribution
system.iobus.pkt_count_system.pc.south_bridge.io_apic.int_master::system.ruby.l1_cntrl0.sequencer.pio-slave-port            6                       # Packet count per connected master and slave (bytes)
system.iobus.pkt_count_system.pc.south_bridge.io_apic.int_master::system.ruby.l1_cntrl1.sequencer.pio-slave-port            4                       # Packet count per connected master and slave (bytes)
system.iobus.pkt_count_system.pc.south_bridge.io_apic.int_master::system.ruby.l1_cntrl2.sequencer.pio-slave-port            4                       # Packet count per connected master and slave (bytes)
system.iobus.pkt_count_system.pc.south_bridge.io_apic.int_master::system.ruby.l1_cntrl3.sequencer.pio-slave-port            4                       # Packet count per connected master and slave (bytes)
system.iobus.pkt_count_system.pc.south_bridge.io_apic.int_master::total           18                       # Packet count per connected master and slave (bytes)
system.iobus.pkt_count_system.ruby.l1_cntrl0.sequencer.mem-master-port::system.pc.south_bridge.ide.pio           46                       # Packet count per connected master and slave (bytes)
system.iobus.pkt_count_system.ruby.l1_cntrl0.sequencer.mem-master-port::system.pc.south_bridge.io_apic.pio           14                       # Packet count per connected master and slave (bytes)
system.iobus.pkt_count_system.ruby.l1_cntrl0.sequencer.mem-master-port::system.pc.com_1.pio          162                       # Packet count per connected master and slave (bytes)
system.iobus.pkt_count_system.ruby.l1_cntrl0.sequencer.mem-master-port::system.ruby.l1_cntrl0.sequencer.pio-slave-port         1822                       # Packet count per connected master and slave (bytes)
system.iobus.pkt_count_system.ruby.l1_cntrl0.sequencer.mem-master-port::system.ruby.l1_cntrl1.sequencer.pio-slave-port            2                       # Packet count per connected master and slave (bytes)
system.iobus.pkt_count_system.ruby.l1_cntrl0.sequencer.mem-master-port::system.ruby.l1_cntrl3.sequencer.pio-slave-port            2                       # Packet count per connected master and slave (bytes)
system.iobus.pkt_count_system.ruby.l1_cntrl0.sequencer.mem-master-port::total         2048                       # Packet count per connected master and slave (bytes)
system.iobus.pkt_count_system.ruby.l1_cntrl1.sequencer.mem-master-port::system.pc.south_bridge.ide.pio          114                       # Packet count per connected master and slave (bytes)
system.iobus.pkt_count_system.ruby.l1_cntrl1.sequencer.mem-master-port::system.pc.south_bridge.io_apic.pio            8                       # Packet count per connected master and slave (bytes)
system.iobus.pkt_count_system.ruby.l1_cntrl1.sequencer.mem-master-port::system.ruby.l1_cntrl1.sequencer.pio-slave-port         1818                       # Packet count per connected master and slave (bytes)
system.iobus.pkt_count_system.ruby.l1_cntrl1.sequencer.mem-master-port::system.ruby.l1_cntrl2.sequencer.pio-slave-port            2                       # Packet count per connected master and slave (bytes)
system.iobus.pkt_count_system.ruby.l1_cntrl1.sequencer.mem-master-port::total         1942                       # Packet count per connected master and slave (bytes)
system.iobus.pkt_count_system.ruby.l1_cntrl2.sequencer.mem-master-port::system.pc.south_bridge.ide.pio           12                       # Packet count per connected master and slave (bytes)
system.iobus.pkt_count_system.ruby.l1_cntrl2.sequencer.mem-master-port::system.pc.south_bridge.io_apic.pio            8                       # Packet count per connected master and slave (bytes)
system.iobus.pkt_count_system.ruby.l1_cntrl2.sequencer.mem-master-port::system.ruby.l1_cntrl0.sequencer.pio-slave-port            4                       # Packet count per connected master and slave (bytes)
system.iobus.pkt_count_system.ruby.l1_cntrl2.sequencer.mem-master-port::system.ruby.l1_cntrl1.sequencer.pio-slave-port            4                       # Packet count per connected master and slave (bytes)
system.iobus.pkt_count_system.ruby.l1_cntrl2.sequencer.mem-master-port::system.ruby.l1_cntrl2.sequencer.pio-slave-port         1830                       # Packet count per connected master and slave (bytes)
system.iobus.pkt_count_system.ruby.l1_cntrl2.sequencer.mem-master-port::system.ruby.l1_cntrl3.sequencer.pio-slave-port            2                       # Packet count per connected master and slave (bytes)
system.iobus.pkt_count_system.ruby.l1_cntrl2.sequencer.mem-master-port::total         1860                       # Packet count per connected master and slave (bytes)
system.iobus.pkt_count_system.ruby.l1_cntrl3.sequencer.mem-master-port::system.pc.south_bridge.ide.pio           12                       # Packet count per connected master and slave (bytes)
system.iobus.pkt_count_system.ruby.l1_cntrl3.sequencer.mem-master-port::system.pc.south_bridge.io_apic.pio            6                       # Packet count per connected master and slave (bytes)
system.iobus.pkt_count_system.ruby.l1_cntrl3.sequencer.mem-master-port::system.pc.com_1.pio           22                       # Packet count per connected master and slave (bytes)
system.iobus.pkt_count_system.ruby.l1_cntrl3.sequencer.mem-master-port::system.ruby.l1_cntrl0.sequencer.pio-slave-port            2                       # Packet count per connected master and slave (bytes)
system.iobus.pkt_count_system.ruby.l1_cntrl3.sequencer.mem-master-port::system.ruby.l1_cntrl1.sequencer.pio-slave-port            2                       # Packet count per connected master and slave (bytes)
system.iobus.pkt_count_system.ruby.l1_cntrl3.sequencer.mem-master-port::system.ruby.l1_cntrl3.sequencer.pio-slave-port         1818                       # Packet count per connected master and slave (bytes)
system.iobus.pkt_count_system.ruby.l1_cntrl3.sequencer.mem-master-port::total         1862                       # Packet count per connected master and slave (bytes)
system.iobus.pkt_count::total                    7730                       # Packet count per connected master and slave (bytes)
system.iobus.pkt_size_system.pc.south_bridge.io_apic.int_master::system.ruby.l1_cntrl0.sequencer.pio-slave-port           12                       # Cumulative packet size per connected master and slave (bytes)
system.iobus.pkt_size_system.pc.south_bridge.io_apic.int_master::system.ruby.l1_cntrl1.sequencer.pio-slave-port            8                       # Cumulative packet size per connected master and slave (bytes)
system.iobus.pkt_size_system.pc.south_bridge.io_apic.int_master::system.ruby.l1_cntrl2.sequencer.pio-slave-port            8                       # Cumulative packet size per connected master and slave (bytes)
system.iobus.pkt_size_system.pc.south_bridge.io_apic.int_master::system.ruby.l1_cntrl3.sequencer.pio-slave-port            8                       # Cumulative packet size per connected master and slave (bytes)
system.iobus.pkt_size_system.pc.south_bridge.io_apic.int_master::total           36                       # Cumulative packet size per connected master and slave (bytes)
system.iobus.pkt_size_system.ruby.l1_cntrl0.sequencer.mem-master-port::system.pc.south_bridge.ide.pio           26                       # Cumulative packet size per connected master and slave (bytes)
system.iobus.pkt_size_system.ruby.l1_cntrl0.sequencer.mem-master-port::system.pc.south_bridge.io_apic.pio           28                       # Cumulative packet size per connected master and slave (bytes)
system.iobus.pkt_size_system.ruby.l1_cntrl0.sequencer.mem-master-port::system.pc.com_1.pio           81                       # Cumulative packet size per connected master and slave (bytes)
system.iobus.pkt_size_system.ruby.l1_cntrl0.sequencer.mem-master-port::system.ruby.l1_cntrl0.sequencer.pio-slave-port         3644                       # Cumulative packet size per connected master and slave (bytes)
system.iobus.pkt_size_system.ruby.l1_cntrl0.sequencer.mem-master-port::system.ruby.l1_cntrl1.sequencer.pio-slave-port            4                       # Cumulative packet size per connected master and slave (bytes)
system.iobus.pkt_size_system.ruby.l1_cntrl0.sequencer.mem-master-port::system.ruby.l1_cntrl3.sequencer.pio-slave-port            4                       # Cumulative packet size per connected master and slave (bytes)
system.iobus.pkt_size_system.ruby.l1_cntrl0.sequencer.mem-master-port::total         3787                       # Cumulative packet size per connected master and slave (bytes)
system.iobus.pkt_size_system.ruby.l1_cntrl1.sequencer.mem-master-port::system.pc.south_bridge.ide.pio           66                       # Cumulative packet size per connected master and slave (bytes)
system.iobus.pkt_size_system.ruby.l1_cntrl1.sequencer.mem-master-port::system.pc.south_bridge.io_apic.pio           16                       # Cumulative packet size per connected master and slave (bytes)
system.iobus.pkt_size_system.ruby.l1_cntrl1.sequencer.mem-master-port::system.ruby.l1_cntrl1.sequencer.pio-slave-port         3636                       # Cumulative packet size per connected master and slave (bytes)
system.iobus.pkt_size_system.ruby.l1_cntrl1.sequencer.mem-master-port::system.ruby.l1_cntrl2.sequencer.pio-slave-port            4                       # Cumulative packet size per connected master and slave (bytes)
system.iobus.pkt_size_system.ruby.l1_cntrl1.sequencer.mem-master-port::total         3722                       # Cumulative packet size per connected master and slave (bytes)
system.iobus.pkt_size_system.ruby.l1_cntrl2.sequencer.mem-master-port::system.pc.south_bridge.ide.pio            6                       # Cumulative packet size per connected master and slave (bytes)
system.iobus.pkt_size_system.ruby.l1_cntrl2.sequencer.mem-master-port::system.pc.south_bridge.io_apic.pio           16                       # Cumulative packet size per connected master and slave (bytes)
system.iobus.pkt_size_system.ruby.l1_cntrl2.sequencer.mem-master-port::system.ruby.l1_cntrl0.sequencer.pio-slave-port            8                       # Cumulative packet size per connected master and slave (bytes)
system.iobus.pkt_size_system.ruby.l1_cntrl2.sequencer.mem-master-port::system.ruby.l1_cntrl1.sequencer.pio-slave-port            8                       # Cumulative packet size per connected master and slave (bytes)
system.iobus.pkt_size_system.ruby.l1_cntrl2.sequencer.mem-master-port::system.ruby.l1_cntrl2.sequencer.pio-slave-port         3660                       # Cumulative packet size per connected master and slave (bytes)
system.iobus.pkt_size_system.ruby.l1_cntrl2.sequencer.mem-master-port::system.ruby.l1_cntrl3.sequencer.pio-slave-port            4                       # Cumulative packet size per connected master and slave (bytes)
system.iobus.pkt_size_system.ruby.l1_cntrl2.sequencer.mem-master-port::total         3702                       # Cumulative packet size per connected master and slave (bytes)
system.iobus.pkt_size_system.ruby.l1_cntrl3.sequencer.mem-master-port::system.pc.south_bridge.ide.pio            6                       # Cumulative packet size per connected master and slave (bytes)
system.iobus.pkt_size_system.ruby.l1_cntrl3.sequencer.mem-master-port::system.pc.south_bridge.io_apic.pio           12                       # Cumulative packet size per connected master and slave (bytes)
system.iobus.pkt_size_system.ruby.l1_cntrl3.sequencer.mem-master-port::system.pc.com_1.pio           11                       # Cumulative packet size per connected master and slave (bytes)
system.iobus.pkt_size_system.ruby.l1_cntrl3.sequencer.mem-master-port::system.ruby.l1_cntrl0.sequencer.pio-slave-port            4                       # Cumulative packet size per connected master and slave (bytes)
system.iobus.pkt_size_system.ruby.l1_cntrl3.sequencer.mem-master-port::system.ruby.l1_cntrl1.sequencer.pio-slave-port            4                       # Cumulative packet size per connected master and slave (bytes)
system.iobus.pkt_size_system.ruby.l1_cntrl3.sequencer.mem-master-port::system.ruby.l1_cntrl3.sequencer.pio-slave-port         3636                       # Cumulative packet size per connected master and slave (bytes)
system.iobus.pkt_size_system.ruby.l1_cntrl3.sequencer.mem-master-port::total         3673                       # Cumulative packet size per connected master and slave (bytes)
system.iobus.pkt_size::total                    14920                       # Cumulative packet size per connected master and slave (bytes)
system.iobus.reqLayer2.occupancy               163500                       # Layer occupancy (ticks)
system.iobus.reqLayer2.utilization                0.0                       # Layer utilization (%)
system.iobus.reqLayer8.occupancy                33996                       # Layer occupancy (ticks)
system.iobus.reqLayer8.utilization                0.0                       # Layer utilization (%)
system.iobus.reqLayer12.occupancy              119000                       # Layer occupancy (ticks)
system.iobus.reqLayer12.utilization               0.0                       # Layer utilization (%)
system.iobus.reqLayer17.occupancy             2285498                       # Layer occupancy (ticks)
system.iobus.reqLayer17.utilization               0.0                       # Layer utilization (%)
system.iobus.reqLayer18.occupancy             2282494                       # Layer occupancy (ticks)
system.iobus.reqLayer18.utilization               0.0                       # Layer utilization (%)
system.iobus.reqLayer19.occupancy             2147481                       # Layer occupancy (ticks)
system.iobus.reqLayer19.utilization               0.0                       # Layer utilization (%)
system.iobus.reqLayer20.occupancy             2277998                       # Layer occupancy (ticks)
system.iobus.reqLayer20.utilization               0.0                       # Layer utilization (%)
system.iobus.respLayer0.occupancy               14496                       # Layer occupancy (ticks)
system.iobus.respLayer0.utilization               0.0                       # Layer utilization (%)
system.iobus.respLayer2.occupancy             1551500                       # Layer occupancy (ticks)
system.iobus.respLayer2.utilization               0.0                       # Layer utilization (%)
system.iobus.respLayer4.occupancy             1444500                       # Layer occupancy (ticks)
system.iobus.respLayer4.utilization               0.0                       # Layer utilization (%)
system.iobus.respLayer6.occupancy             1397500                       # Layer occupancy (ticks)
system.iobus.respLayer6.utilization               0.0                       # Layer utilization (%)
system.iobus.respLayer8.occupancy             1400500                       # Layer occupancy (ticks)
system.iobus.respLayer8.utilization               0.0                       # Layer utilization (%)
system.pc.south_bridge.ide.disks.dma_read_full_pages            1                       # Number of full page size DMA reads (not PRD).
system.pc.south_bridge.ide.disks.dma_read_bytes         4096                       # Number of bytes transfered via DMA reads (not PRD).
system.pc.south_bridge.ide.disks.dma_read_txs            1                       # Number of DMA read transactions (not PRD).
system.pc.south_bridge.ide.disks.dma_write_full_pages           45                       # Number of full page size DMA writes.
system.pc.south_bridge.ide.disks.dma_write_bytes       184320                       # Number of bytes transfered via DMA writes.
system.pc.south_bridge.ide.disks.dma_write_txs           45                       # Number of DMA write transactions.
system.ruby.clk_domain.clock                      500                       # Clock period in ticks
system.ruby.outstanding_req_hist_seqr::bucket_size            1                      
system.ruby.outstanding_req_hist_seqr::max_bucket            9                      
system.ruby.outstanding_req_hist_seqr::samples   3587721467                      
system.ruby.outstanding_req_hist_seqr::mean     1.000000                      
system.ruby.outstanding_req_hist_seqr::gmean     1.000000                      
system.ruby.outstanding_req_hist_seqr::stdev     0.000252                      
system.ruby.outstanding_req_hist_seqr    |           0      0.00%      0.00% |  3587721240    100.00%    100.00% |         227      0.00%    100.00% |           0      0.00%    100.00% |           0      0.00%    100.00% |           0      0.00%    100.00% |           0      0.00%    100.00% |           0      0.00%    100.00% |           0      0.00%    100.00% |           0      0.00%    100.00%
system.ruby.outstanding_req_hist_seqr::total   3587721467                      
system.ruby.latency_hist_seqr::bucket_size          128                      
system.ruby.latency_hist_seqr::max_bucket         1279                      
system.ruby.latency_hist_seqr::samples     3587721467                      
system.ruby.latency_hist_seqr::mean          1.011436                      
system.ruby.latency_hist_seqr::gmean         1.002524                      
system.ruby.latency_hist_seqr::stdev         0.454368                      
system.ruby.latency_hist_seqr            |  3587719745    100.00%    100.00% |        1455      0.00%    100.00% |          42      0.00%    100.00% |          49      0.00%    100.00% |         139      0.00%    100.00% |          37      0.00%    100.00% |           0      0.00%    100.00% |           0      0.00%    100.00% |           0      0.00%    100.00% |           0      0.00%    100.00%
system.ruby.latency_hist_seqr::total       3587721467                      
system.ruby.hit_latency_hist_seqr::bucket_size            2                      
system.ruby.hit_latency_hist_seqr::max_bucket           19                      
system.ruby.hit_latency_hist_seqr::samples   3587616080                      
[...]
system.ruby.L1Cache_Controller.O.Trigger_L2_to_L1D::total         8313                      
system.ruby.L1Cache_Controller.O.Trigger_L2_to_L1I |        2742      7.05%      7.05% |       26672     68.54%     75.59% |         143      0.37%     75.95% |        9358     24.05%    100.00%
system.ruby.L1Cache_Controller.O.Trigger_L2_to_L1I::total        38915                      
system.ruby.L1Cache_Controller.O.Other_GETX |        3702     19.49%     19.49% |        3839     20.21%     39.71% |         977      5.14%     44.85% |       10474     55.15%    100.00%
system.ruby.L1Cache_Controller.O.Other_GETX::total        18992                      
system.ruby.L1Cache_Controller.O.Other_GETS |        4533     15.59%     15.59% |       11326     38.96%     54.55% |         669      2.30%     56.85% |       12546     43.15%    100.00%
system.ruby.L1Cache_Controller.O.Other_GETS::total        29074                      
system.ruby.L1Cache_Controller.M.Load    |      150033      0.28%      0.28% |     1558450      2.88%      3.16% |    52232095     96.52%     99.68% |      172669      0.32%    100.00%
system.ruby.L1Cache_Controller.M.Load::total     54113247                      
system.ruby.L1Cache_Controller.M.Ifetch  |     1831391      2.68%      2.68% |    21281005     31.10%     33.77% |    45215033     66.07%     99.84% |      108264      0.16%    100.00%
system.ruby.L1Cache_Controller.M.Ifetch::total     68435693                      
system.ruby.L1Cache_Controller.M.Store   |        4309     28.16%     28.16% |        3005     19.64%     47.80% |        2343     15.31%     63.11% |        5645     36.89%    100.00%
system.ruby.L1Cache_Controller.M.Store::total        15302                      
system.ruby.L1Cache_Controller.M.L2_Replacement |        2119     46.84%     46.84% |         822     18.17%     65.01% |         405      8.95%     73.96% |        1178     26.04%    100.00%
system.ruby.L1Cache_Controller.M.L2_Replacement::total         4524                      
system.ruby.L1Cache_Controller.M.L1_to_L2 |       17873      9.94%      9.94% |       24165     13.44%     23.37% |      129165     71.82%     95.20% |        8641      4.80%    100.00%
system.ruby.L1Cache_Controller.M.L1_to_L2::total       179844                      
system.ruby.L1Cache_Controller.M.Trigger_L2_to_L1D |        3191      2.28%      2.28% |       10687      7.63%      9.90% |      124316     88.71%     98.61% |        1951      1.39%    100.00%
system.ruby.L1Cache_Controller.M.Trigger_L2_to_L1D::total       140145                      
system.ruby.L1Cache_Controller.M.Trigger_L2_to_L1I |        6461     37.12%     37.12% |        7877     45.25%     82.37% |        2593     14.90%     97.27% |         475      2.73%    100.00%
system.ruby.L1Cache_Controller.M.Trigger_L2_to_L1I::total        17406                      
system.ruby.L1Cache_Controller.M.Other_GETX |         703     17.75%     17.75% |        1140     28.79%     46.54% |         274      6.92%     53.46% |        1843     46.54%    100.00%
system.ruby.L1Cache_Controller.M.Other_GETX::total         3960                      
system.ruby.L1Cache_Controller.M.Other_GETS |        5558     20.61%     20.61% |        8217     30.48%     51.09% |        1450      5.38%     56.47% |       11738     43.53%    100.00%
system.ruby.L1Cache_Controller.M.Other_GETS::total        26963                      
system.ruby.L1Cache_Controller.M.Merged_GETS |           3      4.35%      4.35% |          55     79.71%     84.06% |           6      8.70%     92.75% |           5      7.25%    100.00%
system.ruby.L1Cache_Controller.M.Merged_GETS::total           69                      
system.ruby.L1Cache_Controller.MM.Load   |     1252466      0.34%      0.34% |     3754379      1.03%      1.38% |   357385497     98.36%     99.74% |      945711      0.26%    100.00%
system.ruby.L1Cache_Controller.MM.Load::total    363338053                      
system.ruby.L1Cache_Controller.MM.Store  |     1237772      0.70%      0.70% |     2226348      1.27%      1.97% |   171115892     97.42%     99.39% |     1066182      0.61%    100.00%
system.ruby.L1Cache_Controller.MM.Store::total    175646194                      
system.ruby.L1Cache_Controller.MM.L2_Replacement |        3863     26.29%     26.29% |        1745     11.88%     38.17% |        3008     20.47%     58.64% |        6078     41.36%    100.00%
system.ruby.L1Cache_Controller.MM.L2_Replacement::total        14694                      
system.ruby.L1Cache_Controller.MM.L1_to_L2 |       30050      1.95%      1.95% |       42989      2.79%      4.74% |     1441845     93.62%     98.36% |       25259      1.64%    100.00%
system.ruby.L1Cache_Controller.MM.L1_to_L2::total      1540143                      
system.ruby.L1Cache_Controller.MM.Trigger_L2_to_L1D |       13331      0.90%      0.90% |       33792      2.28%      3.17% |     1427427     96.11%     99.29% |       10591      0.71%    100.00%
system.ruby.L1Cache_Controller.MM.Trigger_L2_to_L1D::total      1485141                      
system.ruby.L1Cache_Controller.MM.Other_GETX |        5556     37.53%     37.53% |        3362     22.71%     60.24% |        3931     26.55%     86.79% |        1955     13.21%    100.00%
system.ruby.L1Cache_Controller.MM.Other_GETX::total        14804                      
system.ruby.L1Cache_Controller.MM.Other_GETS |       14450     44.91%     44.91% |        5996     18.63%     63.54% |        5534     17.20%     80.74% |        6199     19.26%    100.00%
system.ruby.L1Cache_Controller.MM.Other_GETS::total        32179                      
system.ruby.L1Cache_Controller.MM.Merged_GETS |          27      3.91%      3.91% |         237     34.30%     38.21% |         215     31.11%     69.32% |         212     30.68%    100.00%
system.ruby.L1Cache_Controller.MM.Merged_GETS::total          691                      
system.ruby.L1Cache_Controller.SR.Load   |        6039      0.58%      0.58% |        4251      0.41%      0.99% |     1019308     98.17%     99.16% |        8756      0.84%    100.00%
system.ruby.L1Cache_Controller.SR.Load::total      1038354                      
system.ruby.L1Cache_Controller.SR.Ifetch |       44044      4.48%      4.48% |       17850      1.82%      6.29% |      879296     89.43%     95.72% |       42053      4.28%    100.00%
system.ruby.L1Cache_Controller.SR.Ifetch::total       983243                      
system.ruby.L1Cache_Controller.SR.Store  |         139     38.08%     38.08% |          82     22.47%     60.55% |          22      6.03%     66.58% |         122     33.42%    100.00%
system.ruby.L1Cache_Controller.SR.Store::total          365                      
system.ruby.L1Cache_Controller.OR.Load   |         876     10.60%     10.60% |        4361     52.75%     63.34% |         227      2.75%     66.09% |        2804     33.91%    100.00%
system.ruby.L1Cache_Controller.OR.Load::total         8268                      
system.ruby.L1Cache_Controller.OR.Ifetch |        2742      7.05%      7.05% |       26672     68.54%     75.59% |         143      0.37%     75.95% |        9358     24.05%    100.00%
system.ruby.L1Cache_Controller.OR.Ifetch::total        38915                      
system.ruby.L1Cache_Controller.OR.Store  |           9     20.00%     20.00% |          12     26.67%     46.67% |          10     22.22%     68.89% |          14     31.11%    100.00%
system.ruby.L1Cache_Controller.OR.Store::total           45                      
system.ruby.L1Cache_Controller.MR.Load   |        2054      1.49%      1.49% |       10127      7.36%      8.85% |      124162     90.19%     99.04% |        1317      0.96%    100.00%
system.ruby.L1Cache_Controller.MR.Load::total       137660                      
system.ruby.L1Cache_Controller.MR.Ifetch |        6461     37.12%     37.12% |        7877     45.25%     82.37% |        2593     14.90%     97.27% |         475      2.73%    100.00%
system.ruby.L1Cache_Controller.MR.Ifetch::total        17406                      
system.ruby.L1Cache_Controller.MR.Store  |        1137     45.75%     45.75% |         560     22.54%     68.29% |         154      6.20%     74.49% |         634     25.51%    100.00%
system.ruby.L1Cache_Controller.MR.Store::total         2485                      
system.ruby.L1Cache_Controller.MMR.Load  |        8889      2.13%      2.13% |        9099      2.18%      4.31% |      392878     94.23%     98.55% |        6060      1.45%    100.00%
system.ruby.L1Cache_Controller.MMR.Load::total       416926                      
system.ruby.L1Cache_Controller.MMR.Store |        4442      0.42%      0.42% |       24693      2.31%      2.73% |     1034549     96.85%     99.58% |        4531      0.42%    100.00%
system.ruby.L1Cache_Controller.MMR.Store::total      1068215                      
system.ruby.L1Cache_Controller.IM.Ack    |       41006     41.63%     41.63% |       14046     14.26%     55.89% |       30420     30.88%     86.77% |       13027     13.23%    100.00%
system.ruby.L1Cache_Controller.IM.Ack::total        98499                      
system.ruby.L1Cache_Controller.IM.Data   |        3069     50.54%     50.54% |         868     14.29%     64.83% |         939     15.46%     80.29% |        1197     19.71%    100.00%
system.ruby.L1Cache_Controller.IM.Data::total         6073                      
system.ruby.L1Cache_Controller.IM.Exclusive_Data |       14641     34.56%     34.56% |        7547     17.81%     52.37% |       11915     28.13%     80.50% |        8261     19.50%    100.00%
system.ruby.L1Cache_Controller.IM.Exclusive_Data::total        42364                      
system.ruby.L1Cache_Controller.SM.Ack    |        8469     53.54%     53.54% |        2186     13.82%     67.36% |        1910     12.07%     79.43% |        3253     20.57%    100.00%
system.ruby.L1Cache_Controller.SM.Ack::total        15818                      
system.ruby.L1Cache_Controller.SM.Data   |        5786     44.22%     44.22% |        2249     17.19%     61.41% |        2054     15.70%     77.10% |        2996     22.90%    100.00%
system.ruby.L1Cache_Controller.SM.Data::total        13085                      
system.ruby.L1Cache_Controller.OM.Ack    |         351     31.28%     31.28% |         282     25.13%     56.42% |         108      9.63%     66.04% |         381     33.96%    100.00%
system.ruby.L1Cache_Controller.OM.Ack::total         1122                      
system.ruby.L1Cache_Controller.OM.All_acks_no_sharers |         117     31.28%     31.28% |          94     25.13%     56.42% |          36      9.63%     66.04% |         127     33.96%    100.00%
system.ruby.L1Cache_Controller.OM.All_acks_no_sharers::total          374                      
system.ruby.L1Cache_Controller.ISM.Ack   |        4319     28.20%     28.20% |        3776     24.66%     52.86% |        3115     20.34%     73.20% |        4105     26.80%    100.00%
system.ruby.L1Cache_Controller.ISM.Ack::total        15315                      
system.ruby.L1Cache_Controller.ISM.All_acks_no_sharers |        8855     46.22%     46.22% |        3117     16.27%     62.49% |        2993     15.62%     78.11% |        4193     21.89%    100.00%
system.ruby.L1Cache_Controller.ISM.All_acks_no_sharers::total        19158                      
system.ruby.L1Cache_Controller.M_W.Load  |          75     25.68%     25.68% |          48     16.44%     42.12% |          62     21.23%     63.36% |         107     36.64%    100.00%
system.ruby.L1Cache_Controller.M_W.Load::total          292                      
system.ruby.L1Cache_Controller.M_W.Store |          25     43.86%     43.86% |          12     21.05%     64.91% |          14     24.56%     89.47% |           6     10.53%    100.00%
system.ruby.L1Cache_Controller.M_W.Store::total           57                      
system.ruby.L1Cache_Controller.M_W.Ack   |        7595     20.89%     20.89% |        7075     19.46%     40.34% |        3615      9.94%     50.29% |       18077     49.71%    100.00%
system.ruby.L1Cache_Controller.M_W.Ack::total        36362                      
system.ruby.L1Cache_Controller.M_W.All_acks_no_sharers |       15762     28.51%     28.51% |       12932     23.39%     51.89% |        5354      9.68%     61.58% |       21246     38.42%    100.00%
system.ruby.L1Cache_Controller.M_W.All_acks_no_sharers::total        55294                      
system.ruby.L1Cache_Controller.MM_W.Store |        1714     26.52%     26.52% |        1692     26.18%     52.70% |        1092     16.90%     69.60% |        1965     30.40%    100.00%
system.ruby.L1Cache_Controller.MM_W.Store::total         6463                      
system.ruby.L1Cache_Controller.MM_W.Ack  |        3929     21.66%     21.66% |        4179     23.04%     44.70% |        3366     18.56%     63.25% |        6666     36.75%    100.00%
system.ruby.L1Cache_Controller.MM_W.Ack::total        18140                      
system.ruby.L1Cache_Controller.MM_W.All_acks_no_sharers |       14666     34.57%     34.57% |        7559     17.82%     52.39% |       11929     28.12%     80.51% |        8267     19.49%    100.00%
system.ruby.L1Cache_Controller.MM_W.All_acks_no_sharers::total        42421                      
system.ruby.L1Cache_Controller.IS.Other_GETS |           1     50.00%     50.00% |           1     50.00%    100.00% |           0      0.00%    100.00% |           0      0.00%    100.00%
system.ruby.L1Cache_Controller.IS.Other_GETS::total            2                      
system.ruby.L1Cache_Controller.IS.Ack    |       39705     27.85%     27.85% |       43117     30.24%     58.08% |       18350     12.87%     70.95% |       41418     29.05%    100.00%
system.ruby.L1Cache_Controller.IS.Ack::total       142590                      
system.ruby.L1Cache_Controller.IS.Shared_Ack |       10146     34.11%     34.11% |        5347     17.97%     52.08% |        9117     30.65%     82.73% |        5139     17.27%    100.00%
system.ruby.L1Cache_Controller.IS.Shared_Ack::total        29749                      
system.ruby.L1Cache_Controller.IS.Data   |         850     15.00%     15.00% |        2301     40.62%     55.62% |         548      9.67%     65.30% |        1966     34.70%    100.00%
system.ruby.L1Cache_Controller.IS.Data::total         5665                      
system.ruby.L1Cache_Controller.IS.Shared_Data |       16386     28.85%     28.85% |       14645     25.78%     54.63% |       14618     25.74%     80.37% |       11148     19.63%    100.00%
system.ruby.L1Cache_Controller.IS.Shared_Data::total        56797                      
system.ruby.L1Cache_Controller.IS.Exclusive_Data |       15787     28.52%     28.52% |       12944     23.39%     51.91% |        5368      9.70%     61.61% |       21252     38.39%    100.00%
system.ruby.L1Cache_Controller.IS.Exclusive_Data::total        55351                      
system.ruby.L1Cache_Controller.SS.Load   |          79     10.12%     10.12% |         498     63.76%     73.88% |          65      8.32%     82.20% |         139     17.80%    100.00%
system.ruby.L1Cache_Controller.SS.Load::total          781                      
system.ruby.L1Cache_Controller.SS.Ifetch |        3698     37.54%     37.54% |         729      7.40%     44.94% |        2759     28.00%     72.94% |        2666     27.06%    100.00%
system.ruby.L1Cache_Controller.SS.Ifetch::total         9852                      
system.ruby.L1Cache_Controller.SS.Store  |           4     14.81%     14.81% |          17     62.96%     77.78% |           3     11.11%     88.89% |           3     11.11%    100.00%
system.ruby.L1Cache_Controller.SS.Store::total           27                      
system.ruby.L1Cache_Controller.SS.Ack    |       10922     29.03%     29.03% |        9778     25.99%     55.02% |        6362     16.91%     71.93% |       10563     28.07%    100.00%
system.ruby.L1Cache_Controller.SS.Ack::total        37625                      
system.ruby.L1Cache_Controller.SS.Shared_Ack |        6068     36.62%     36.62% |        1567      9.46%     46.08% |        6353     38.34%     84.42% |        2581     15.58%    100.00%
system.ruby.L1Cache_Controller.SS.Shared_Ack::total        16569                      
system.ruby.L1Cache_Controller.SS.All_acks |       17207     27.82%     27.82% |       16763     27.10%     54.93% |       15156     24.51%     79.43% |       12719     20.57%    100.00%
system.ruby.L1Cache_Controller.SS.All_acks::total        61845                      
system.ruby.L1Cache_Controller.SS.All_acks_no_sharers |          29      4.70%      4.70% |         183     29.66%     34.36% |          10      1.62%     35.98% |         395     64.02%    100.00%
system.ruby.L1Cache_Controller.SS.All_acks_no_sharers::total          617                      
system.ruby.L1Cache_Controller.OI.Load   |           1      2.27%      2.27% |          38     86.36%     88.64% |           1      2.27%     90.91% |           4      9.09%    100.00%
system.ruby.L1Cache_Controller.OI.Load::total           44                      
system.ruby.L1Cache_Controller.OI.Ifetch |           2     10.00%     10.00% |          12     60.00%     70.00% |           0      0.00%     70.00% |           6     30.00%    100.00%
system.ruby.L1Cache_Controller.OI.Ifetch::total           20                      
system.ruby.L1Cache_Controller.OI.Writeback_Ack |         679     11.50%     11.50% |        3725     63.10%     74.61% |         109      1.85%     76.45% |        1390     23.55%    100.00%
system.ruby.L1Cache_Controller.OI.Writeback_Ack::total         5903                      
system.ruby.L1Cache_Controller.MI.Load   |           9     28.12%     28.12% |           4     12.50%     40.62% |           2      6.25%     46.88% |          17     53.12%    100.00%
system.ruby.L1Cache_Controller.MI.Load::total           32                      
system.ruby.L1Cache_Controller.MI.Ifetch |           0      0.00%      0.00% |           1    100.00%    100.00% |           0      0.00%    100.00% |           0      0.00%    100.00%
system.ruby.L1Cache_Controller.MI.Ifetch::total            1                      
system.ruby.L1Cache_Controller.MI.Store  |          15     37.50%     37.50% |          11     27.50%     65.00% |           1      2.50%     67.50% |          13     32.50%    100.00%
system.ruby.L1Cache_Controller.MI.Store::total           40                      
system.ruby.L1Cache_Controller.MI.Writeback_Ack |        5982     31.13%     31.13% |        2567     13.36%     44.48% |        3413     17.76%     62.24% |        7256     37.76%    100.00%
system.ruby.L1Cache_Controller.MI.Writeback_Ack::total        19218                      
system.ruby.L1Cache_Controller.ST.Complete_L2_to_L1 |       50222      2.48%      2.48% |       22183      1.10%      3.58% |     1898626     93.90%     97.48% |       50931      2.52%    100.00%
system.ruby.L1Cache_Controller.ST.Complete_L2_to_L1::total      2021962                      
system.ruby.L1Cache_Controller.OT.Complete_L2_to_L1 |        3627      7.68%      7.68% |       31045     65.73%     73.41% |         380      0.80%     74.22% |       12176     25.78%    100.00%
system.ruby.L1Cache_Controller.OT.Complete_L2_to_L1::total        47228                      
system.ruby.L1Cache_Controller.MT.Complete_L2_to_L1 |        9652      6.13%      6.13% |       18564     11.78%     17.91% |      126909     80.55%     98.46% |        2426      1.54%    100.00%
system.ruby.L1Cache_Controller.MT.Complete_L2_to_L1::total       157551                      
system.ruby.L1Cache_Controller.MMT.Complete_L2_to_L1 |       13331      0.90%      0.90% |       33792      2.28%      3.17% |     1427427     96.11%     99.29% |       10591      0.71%    100.00%
system.ruby.L1Cache_Controller.MMT.Complete_L2_to_L1::total      1485141                      

---------- End Simulation Statistics   ----------
