
---------- Begin Simulation Statistics ----------
sim_seconds                                  3.599536                       # Number of seconds simulated
sim_ticks                                3599536006500                       # Number of ticks simulated
final_tick                               55903867035001                       # Number of ticks from beginning of simulation (restored from checkpoints and never reset)
sim_freq                                 1000000000000                       # Frequency of simulated ticks
host_inst_rate                                 146422                       # Simulator instruction rate (inst/s)
host_op_rate                                   249364                       # Simulator op (including micro ops) rate (op/s)
host_tick_rate                              260822958                       # Simulator tick rate (ticks/s)
host_mem_usage                                1893160                       # Number of bytes of host memory used
host_seconds                                 13800.69                       # Real time elapsed on the host
sim_insts                                  2020728466                       # Number of instructions simulated
sim_ops                                    3441397454                       # Number of ops (including micro ops) simulated
system.voltage_domain.voltage                       1                       # Voltage in Volts
system.clk_domain.clock                          1000                       # Clock period in ticks
system.mem_ctrls.bytes_read::ruby.dir_cntrl0      1315200                       # Number of bytes read from this memory
system.mem_ctrls.bytes_read::total            1315200                       # Number of bytes read from this memory
system.mem_ctrls.bytes_written::ruby.dir_cntrl0       343744                       # Number of bytes written to this memory
system.mem_ctrls.bytes_written::total          343744                       # Number of bytes written to this memory
system.mem_ctrls.num_reads::ruby.dir_cntrl0        20550                       # Number of read requests responded to by this memory
system.mem_ctrls.num_reads::total               20550                       # Number of read requests responded to by this memory
system.mem_ctrls.num_writes::ruby.dir_cntrl0         5371                       # Number of write requests responded to by this memory
system.mem_ctrls.num_writes::total               5371                       # Number of write requests responded to by this memory
system.mem_ctrls.bw_read::ruby.dir_cntrl0       365380                       # Total read bandwidth from this memory (bytes/s)
system.mem_ctrls.bw_read::total                365380                       # Total read bandwidth from this memory (bytes/s)
system.mem_ctrls.bw_write::ruby.dir_cntrl0        95497                       # Write bandwidth from this memory (bytes/s)
system.mem_ctrls.bw_write::total                95497                       # Write bandwidth from this memory (bytes/s)
system.mem_ctrls.bw_total::ruby.dir_cntrl0       460877                       # Total bandwidth to/from this memory (bytes/s)
system.mem_ctrls.bw_total::total               460877                       # Total bandwidth to/from this memory (bytes/s)
system.mem_ctrls.readReqs                       20550                       # Number of read requests accepted
system.mem_ctrls.writeReqs                       5371                       # Number of write requests accepted
system.mem_ctrls.readBursts                     20550                       # Number of DRAM read bursts, including those serviced by the write queue
system.mem_ctrls.writeBursts                     5371                       # Number of DRAM write bursts, including those merged in the write queue
system.mem_ctrls.bytesReadDRAM                1314176                       # Total number of bytes read from DRAM
system.mem_ctrls.bytesReadWrQ                    1024                       # Total number of bytes read from write queue
system.mem_ctrls.bytesWritten                  342784                       # Total number of bytes written to DRAM
system.mem_ctrls.bytesReadSys                 1315200                       # Total read bytes from the system interface side
system.mem_ctrls.bytesWrittenSys               343744                       # Total written bytes from the system interface side
system.mem_ctrls.servicedByWrQ                     16                       # Number of DRAM read bursts serviced by the write queue
system.mem_ctrls.mergedWrBursts                     0                       # Number of DRAM write bursts merged with an existing one
system.mem_ctrls.neitherReadNorWriteReqs            0                       # Number of requests that are neither read nor write
system.mem_ctrls.perBankRdBursts::0              1232                       # Per bank write bursts
system.mem_ctrls.perBankRdBursts::1              1457                       # Per bank write bursts
system.mem_ctrls.perBankRdBursts::2              1282                       # Per bank write bursts
system.mem_ctrls.perBankRdBursts::3              1438                       # Per bank write bursts
system.mem_ctrls.perBankRdBursts::4              1413                       # Per bank write bursts
system.mem_ctrls.perBankRdBursts::5              1349                       # Per bank write bursts
system.mem_ctrls.perBankRdBursts::6              1262                       # Per bank write bursts
system.mem_ctrls.perBankRdBursts::7              1668                       # Per bank write bursts
system.mem_ctrls.perBankRdBursts::8              1127                       # Per bank write bursts
system.mem_ctrls.perBankRdBursts::9              1277                       # Per bank write bursts
system.mem_ctrls.perBankRdBursts::10              902                       # Per bank write bursts
system.mem_ctrls.perBankRdBursts::11              915                       # Per bank write bursts
system.mem_ctrls.perBankRdBursts::12             1088                       # Per bank write bursts
system.mem_ctrls.perBankRdBursts::13             1253                       # Per bank write bursts
system.mem_ctrls.perBankRdBursts::14             1536                       # Per bank write bursts
system.mem_ctrls.perBankRdBursts::15             1335                       # Per bank write bursts
system.mem_ctrls.perBankWrBursts::0               246                       # Per bank write bursts
system.mem_ctrls.perBankWrBursts::1               307                       # Per bank write bursts
system.mem_ctrls.perBankWrBursts::2               439                       # Per bank write bursts
system.mem_ctrls.perBankWrBursts::3               411                       # Per bank write bursts
system.mem_ctrls.perBankWrBursts::4               475                       # Per bank write bursts
system.mem_ctrls.perBankWrBursts::5               475                       # Per bank write bursts
system.mem_ctrls.perBankWrBursts::6               386                       # Per bank write bursts
system.mem_ctrls.perBankWrBursts::7               556                       # Per bank write bursts
system.mem_ctrls.perBankWrBursts::8               385                       # Per bank write bursts
system.mem_ctrls.perBankWrBursts::9               398                       # Per bank write bursts
system.mem_ctrls.perBankWrBursts::10              344                       # Per bank write bursts
system.mem_ctrls.perBankWrBursts::11              101                       # Per bank write bursts
system.mem_ctrls.perBankWrBursts::12              105                       # Per bank write bursts
system.mem_ctrls.perBankWrBursts::13              104                       # Per bank write bursts
system.mem_ctrls.perBankWrBursts::14              252                       # Per bank write bursts
system.mem_ctrls.perBankWrBursts::15              372                       # Per bank write bursts
system.mem_ctrls.numRdRetry                         0                       # Number of times read queue was full causing retry
system.mem_ctrls.numWrRetry                         0                       # Number of times write queue was full causing retry
system.mem_ctrls.totGap                  3599535949500                       # Total gap between requests
system.mem_ctrls.readPktSize::0                     0                       # Read request sizes (log2)
system.mem_ctrls.readPktSize::1                     0                       # Read request sizes (log2)
system.mem_ctrls.readPktSize::2                     0                       # Read request sizes (log2)
system.mem_ctrls.readPktSize::3                     0                       # Read request sizes (log2)
system.mem_ctrls.readPktSize::4                     0                       # Read request sizes (log2)
system.mem_ctrls.readPktSize::5                     0                       # Read request sizes (log2)
system.mem_ctrls.readPktSize::6                 20550                       # Read request sizes (log2)
system.mem_ctrls.writePktSize::0                    0                       # Write request sizes (log2)
system.mem_ctrls.writePktSize::1                    0                       # Write request sizes (log2)
system.mem_ctrls.writePktSize::2                    0                       # Write request sizes (log2)
system.mem_ctrls.writePktSize::3                    0                       # Write request sizes (log2)
system.mem_ctrls.writePktSize::4                    0                       # Write request sizes (log2)
system.mem_ctrls.writePktSize::5                    0                       # Write request sizes (log2)
system.mem_ctrls.writePktSize::6                 5371                       # Write request sizes (log2)
system.mem_ctrls.rdQLenPdf::0                   20344                       # What read queue length does an incoming req see
system.mem_ctrls.rdQLenPdf::1                     189                       # What read queue length does an incoming req see
system.mem_ctrls.rdQLenPdf::2                       1                       # What read queue length does an incoming req see
system.mem_ctrls.rdQLenPdf::3                       0                       # What read queue length does an incoming req see
system.mem_ctrls.rdQLenPdf::4                       0                       # What read queue length does an incoming req see
system.mem_ctrls.rdQLenPdf::5                       0                       # What read queue length does an incoming req see
system.mem_ctrls.rdQLenPdf::6                       0                       # What read queue length does an incoming req see
system.mem_ctrls.rdQLenPdf::7                       0                       # What read queue length does an incoming req see
system.mem_ctrls.rdQLenPdf::8                       0                       # What read queue length does an incoming req see
system.mem_ctrls.rdQLenPdf::9                       0                       # What read queue length does an incoming req see
system.mem_ctrls.rdQLenPdf::10                      0                       # What read queue length does an incoming req see
system.mem_ctrls.rdQLenPdf::11                      0                       # What read queue length does an incoming req see
system.mem_ctrls.rdQLenPdf::12                      0                       # What read queue length does an incoming req see
system.mem_ctrls.rdQLenPdf::13                      0                       # What read queue length does an incoming req see
system.mem_ctrls.rdQLenPdf::14                      0                       # What read queue length does an incoming req see
system.mem_ctrls.rdQLenPdf::15                      0                       # What read queue length does an incoming req see
system.mem_ctrls.rdQLenPdf::16                      0                       # What read queue length does an incoming req see
system.mem_ctrls.rdQLenPdf::17                      0                       # What read queue length does an incoming req see
system.mem_ctrls.rdQLenPdf::18                      0                       # What read queue length does an incoming req see
system.mem_ctrls.rdQLenPdf::19                      0                       # What read queue length does an incoming req see
system.mem_ctrls.rdQLenPdf::20                      0                       # What read queue length does an incoming req see
system.mem_ctrls.rdQLenPdf::21                      0                       # What read queue length does an incoming req see
system.mem_ctrls.rdQLenPdf::22                      0                       # What read queue length does an incoming req see
system.mem_ctrls.rdQLenPdf::23                      0                       # What read queue length does an incoming req see
system.mem_ctrls.rdQLenPdf::24                      0                       # What read queue length does an incoming req see
system.mem_ctrls.rdQLenPdf::25                      0                       # What read queue length does an incoming req see
system.mem_ctrls.rdQLenPdf::26                      0                       # What read queue length does an incoming req see
system.mem_ctrls.rdQLenPdf::27                      0                       # What read queue length does an incoming req see
system.mem_ctrls.rdQLenPdf::28                      0                       # What read queue length does an incoming req see
system.mem_ctrls.rdQLenPdf::29                      0                       # What read queue length does an incoming req see
system.mem_ctrls.rdQLenPdf::30                      0                       # What read queue length does an incoming req see
system.mem_ctrls.rdQLenPdf::31                      0                       # What read queue length does an incoming req see
system.mem_ctrls.wrQLenPdf::0                       0                       # What write queue length does an incoming req see
system.mem_ctrls.wrQLenPdf::1                       0                       # What write queue length does an incoming req see
system.mem_ctrls.wrQLenPdf::2                       0                       # What write queue length does an incoming req see
system.mem_ctrls.wrQLenPdf::3                       1                       # What write queue length does an incoming req see
system.mem_ctrls.wrQLenPdf::4                       1                       # What write queue length does an incoming req see
system.mem_ctrls.wrQLenPdf::5                       1                       # What write queue length does an incoming req see
system.mem_ctrls.wrQLenPdf::6                       1                       # What write queue length does an incoming req see
system.mem_ctrls.wrQLenPdf::7                       1                       # What write queue length does an incoming req see
system.mem_ctrls.wrQLenPdf::8                       1                       # What write queue length does an incoming req see
system.mem_ctrls.wrQLenPdf::9                       1                       # What write queue length does an incoming req see
system.mem_ctrls.wrQLenPdf::10                      1                       # What write queue length does an incoming req see
system.mem_ctrls.wrQLenPdf::11                      1                       # What write queue length does an incoming req see
system.mem_ctrls.wrQLenPdf::12                      1                       # What write queue length does an incoming req see
system.mem_ctrls.wrQLenPdf::13                      1                       # What write queue length does an incoming req see
system.mem_ctrls.wrQLenPdf::14                      1                       # What write queue length does an incoming req see
system.mem_ctrls.wrQLenPdf::15                    193                       # What write queue length does an incoming req see
system.mem_ctrls.wrQLenPdf::16                    250                       # What write queue length does an incoming req see
system.mem_ctrls.wrQLenPdf::17                    262                       # What write queue length does an incoming req see
system.mem_ctrls.wrQLenPdf::18                    318                       # What write queue length does an incoming req see
system.mem_ctrls.wrQLenPdf::19                    271                       # What write queue length does an incoming req see
system.mem_ctrls.wrQLenPdf::20                    355                       # What write queue length does an incoming req see
system.mem_ctrls.wrQLenPdf::21                    294                       # What write queue length does an incoming req see
system.mem_ctrls.wrQLenPdf::22                    377                       # What write queue length does an incoming req see
system.mem_ctrls.wrQLenPdf::23                    296                       # What write queue length does an incoming req see
system.mem_ctrls.wrQLenPdf::24                    369                       # What write queue length does an incoming req see
system.mem_ctrls.wrQLenPdf::25                    292                       # What write queue length does an incoming req see
system.mem_ctrls.wrQLenPdf::26                    310                       # What write queue length does an incoming req see
system.mem_ctrls.wrQLenPdf::27                    280                       # What write queue length does an incoming req see
system.mem_ctrls.wrQLenPdf::28                    312                       # What write queue length does an incoming req see
system.mem_ctrls.wrQLenPdf::29                    270                       # What write queue length does an incoming req see
system.mem_ctrls.wrQLenPdf::30                    303                       # What write queue length does an incoming req see
system.mem_ctrls.wrQLenPdf::31                    266                       # What write queue length does an incoming req see
system.mem_ctrls.wrQLenPdf::32                    271                       # What write queue length does an incoming req see
system.mem_ctrls.wrQLenPdf::33                      9                       # What write queue length does an incoming req see
system.mem_ctrls.wrQLenPdf::34                     11                       # What write queue length does an incoming req see
system.mem_ctrls.wrQLenPdf::35                      9                       # What write queue length does an incoming req see
system.mem_ctrls.wrQLenPdf::36                     11                       # What write queue length does an incoming req see
system.mem_ctrls.wrQLenPdf::37                      7                       # What write queue length does an incoming req see
system.mem_ctrls.wrQLenPdf::38                      6                       # What write queue length does an incoming req see
system.mem_ctrls.wrQLenPdf::39                      4                       # What write queue length does an incoming req see
system.mem_ctrls.wrQLenPdf::40                      4                       # What write queue length does an incoming req see
system.mem_ctrls.wrQLenPdf::41                      1                       # What write queue length does an incoming req see
system.mem_ctrls.wrQLenPdf::42                      2                       # What write queue length does an incoming req see
system.mem_ctrls.wrQLenPdf::43                      1                       # What write queue length does an incoming req see
system.mem_ctrls.wrQLenPdf::44                      2                       # What write queue length does an incoming req see
system.mem_ctrls.wrQLenPdf::45                      1                       # What write queue length does an incoming req see
system.mem_ctrls.wrQLenPdf::46                      1                       # What write queue length does an incoming req see
system.mem_ctrls.wrQLenPdf::47                      1                       # What write queue length does an incoming req see
system.mem_ctrls.wrQLenPdf::48                      0                       # What write queue length does an incoming req see
system.mem_ctrls.wrQLenPdf::49                      0                       # What write queue length does an incoming req see
system.mem_ctrls.wrQLenPdf::50                      0                       # What write queue length does an incoming req see
system.mem_ctrls.wrQLenPdf::51                      0                       # What write queue length does an incoming req see
system.mem_ctrls.wrQLenPdf::52                      0                       # What write queue length does an incoming req see
system.mem_ctrls.wrQLenPdf::53                      0                       # What write queue length does an incoming req see
system.mem_ctrls.wrQLenPdf::54                      0                       # What write queue length does an incoming req see
system.mem_ctrls.wrQLenPdf::55                      0                       # What write queue length does an incoming req see
system.mem_ctrls.wrQLenPdf::56                      0                       # What write queue length does an incoming req see
system.mem_ctrls.wrQLenPdf::57                      0                       # What write queue length does an incoming req see
system.mem_ctrls.wrQLenPdf::58                      0                       # What write queue length does an incoming req see
system.mem_ctrls.wrQLenPdf::59                      0                       # What write queue length does an incoming req see
system.mem_ctrls.wrQLenPdf::60                      0                       # What write queue length does an incoming req see
system.mem_ctrls.wrQLenPdf::61                      0                       # What write queue length does an incoming req see
system.mem_ctrls.wrQLenPdf::62                      0                       # What write queue length does an incoming req see
system.mem_ctrls.wrQLenPdf::63                      0                       # What write queue length does an incoming req see
system.mem_ctrls.bytesPerActivate::samples         6923                       # Bytes accessed per row activation
system.mem_ctrls.bytesPerActivate::mean    239.341326                       # Bytes accessed per row activation
system.mem_ctrls.bytesPerActivate::gmean   136.752740                       # Bytes accessed per row activation
system.mem_ctrls.bytesPerActivate::stdev   306.324317                       # Bytes accessed per row activation
system.mem_ctrls.bytesPerActivate::0-127         3418     49.37%     49.37% # Bytes accessed per row activation
system.mem_ctrls.bytesPerActivate::128-255         1808     26.12%     75.49% # Bytes accessed per row activation
system.mem_ctrls.bytesPerActivate::256-383          443      6.40%     81.89% # Bytes accessed per row activation
system.mem_ctrls.bytesPerActivate::384-511          195      2.82%     84.70% # Bytes accessed per row activation
system.mem_ctrls.bytesPerActivate::512-639          119      1.72%     86.42% # Bytes accessed per row activation
system.mem_ctrls.bytesPerActivate::640-767           95      1.37%     87.79% # Bytes accessed per row activation
system.mem_ctrls.bytesPerActivate::768-895           70      1.01%     88.81% # Bytes accessed per row activation
system.mem_ctrls.bytesPerActivate::896-1023           61      0.88%     89.69% # Bytes accessed per row activation
system.mem_ctrls.bytesPerActivate::1024-1151          714     10.31%    100.00% # Bytes accessed per row activation
system.mem_ctrls.bytesPerActivate::total         6923                       # Bytes accessed per row activation
system.mem_ctrls.rdPerTurnAround::samples          241                       # Reads before turning the bus around for writes
system.mem_ctrls.rdPerTurnAround::mean     157.199170                       # Reads before turning the bus around for writes
system.mem_ctrls.rdPerTurnAround::stdev   1200.931990                       # Reads before turning the bus around for writes
system.mem_ctrls.rdPerTurnAround::0-1023          237     98.34%     98.34% # Reads before turning the bus around for writes
system.mem_ctrls.rdPerTurnAround::1024-2047            3      1.24%     99.59% # Reads before turning the bus around for writes
system.mem_ctrls.rdPerTurnAround::18432-19455            1      0.41%    100.00% # Reads before turning the bus around for writes
system.mem_ctrls.rdPerTurnAround::total           241                       # Reads before turning the bus around for writes
system.mem_ctrls.wrPerTurnAround::samples          241                       # Writes before turning the bus around for reads
system.mem_ctrls.wrPerTurnAround::mean      22.224066                       # Writes before turning the bus around for reads
system.mem_ctrls.wrPerTurnAround::gmean     21.159306                       # Writes before turning the bus around for reads
system.mem_ctrls.wrPerTurnAround::stdev      7.965525                       # Writes before turning the bus around for reads
system.mem_ctrls.wrPerTurnAround::16-17            47     19.50%     19.50% # Writes before turning the bus around for reads
system.mem_ctrls.wrPerTurnAround::18-19           104     43.15%     62.66% # Writes before turning the bus around for reads
system.mem_ctrls.wrPerTurnAround::20-21             8      3.32%     65.98% # Writes before turning the bus around for reads
system.mem_ctrls.wrPerTurnAround::22-23            19      7.88%     73.86% # Writes before turning the bus around for reads
system.mem_ctrls.wrPerTurnAround::24-25            10      4.15%     78.01% # Writes before turning the bus around for reads
system.mem_ctrls.wrPerTurnAround::26-27             1      0.41%     78.42% # Writes before turning the bus around for reads
system.mem_ctrls.wrPerTurnAround::28-29             8      3.32%     81.74% # Writes before turning the bus around for reads
system.mem_ctrls.wrPerTurnAround::30-31             2      0.83%     82.57% # Writes before turning the bus around for reads
system.mem_ctrls.wrPerTurnAround::32-33             2      0.83%     83.40% # Writes before turning the bus around for reads
system.mem_ctrls.wrPerTurnAround::34-35            33     13.69%     97.10% # Writes before turning the bus around for reads
system.mem_ctrls.wrPerTurnAround::38-39             1      0.41%     97.51% # Writes before turning the bus around for reads
system.mem_ctrls.wrPerTurnAround::40-41             1      0.41%     97.93% # Writes before turning the bus around for reads
system.mem_ctrls.wrPerTurnAround::42-43             2      0.83%     98.76% # Writes before turning the bus around for reads
system.mem_ctrls.wrPerTurnAround::48-49             1      0.41%     99.17% # Writes before turning the bus around for reads
system.mem_ctrls.wrPerTurnAround::64-65             2      0.83%    100.00% # Writes before turning the bus around for reads
system.mem_ctrls.wrPerTurnAround::total           241                       # Writes before turning the bus around for reads
system.mem_ctrls.totQLat                    148920499                       # Total ticks spent queuing
system.mem_ctrls.totMemAccLat               533932999                       # Total ticks spent from burst creation until serviced by the DRAM
system.mem_ctrls.totBusLat                  102670000                       # Total ticks spent in databus transfers
system.mem_ctrls.avgQLat                      7252.39                       # Average queueing delay per DRAM burst
system.mem_ctrls.avgBusLat                    5000.00                       # Average bus latency per DRAM burst
system.mem_ctrls.avgMemAccLat                26002.39                       # Average memory access latency per DRAM burst
system.mem_ctrls.avgRdBW                         0.37                       # Average DRAM read bandwidth in MiByte/s
system.mem_ctrls.avgWrBW                         0.10                       # Average achieved write bandwidth in MiByte/s
system.mem_ctrls.avgRdBWSys                      0.37                       # Average system read bandwidth in MiByte/s
system.mem_ctrls.avgWrBWSys                      0.10                       # Average system write bandwidth in MiByte/s
system.mem_ctrls.peakBW                      12800.00                       # Theoretical peak bandwidth in MiByte/s
system.mem_ctrls.busUtil                         0.00                       # Data bus utilization in percentage
system.mem_ctrls.busUtilRead                     0.00                       # Data bus utilization in percentage for reads
system.mem_ctrls.busUtilWrite                    0.00                       # Data bus utilization in percentage for writes
system.mem_ctrls.avgRdQLen                       1.00                       # Average read queue length when enqueuing
system.mem_ctrls.avgWrQLen                      24.17                       # Average write queue length when enqueuing
system.mem_ctrls.readRowHits                    15464                       # Number of row buffer hits during reads
system.mem_ctrls.writeRowHits                    3503                       # Number of row buffer hits during writes
system.mem_ctrls.readRowHitRate                 75.31                       # Row buffer hit rate for reads
system.mem_ctrls.writeRowHitRate                65.22                       # Row buffer hit rate for writes
system.mem_ctrls.avgGap                  138865628.24                       # Average gap between requests
system.mem_ctrls.pageHitRate                    73.22                       # Row buffer hit rate, read and write combined
system.mem_ctrls_0.actEnergy                 44362080                       # Energy for activate commands per rank (pJ)
system.mem_ctrls_0.preEnergy                 24205500                       # Energy for precharge commands per rank (pJ)
system.mem_ctrls_0.readEnergy               154252800                       # Energy for read commands per rank (pJ)
system.mem_ctrls_0.writeEnergy               21351600                       # Energy for write commands per rank (pJ)
system.mem_ctrls_0.refreshEnergy         235337157120                       # Energy for refresh commands per rank (pJ)
system.mem_ctrls_0.actBackEnergy          82069593795                       # Energy for active background per rank (pJ)
system.mem_ctrls_0.preBackEnergy         2089870940250                       # Energy for precharge background per rank (pJ)
system.mem_ctrls_0.totalEnergy           2407521863145                       # Total energy per rank (pJ)
system.mem_ctrls_0.averagePower            668.180135                       # Core power per rank (mW)
system.mem_ctrls_0.memoryStateTime::IDLE 3475469217250                       # Time in different power states
system.mem_ctrls_0.memoryStateTime::REF  120196440000                       # Time in different power states
system.mem_ctrls_0.memoryStateTime::PRE_PDN            0                       # Time in different power states
system.mem_ctrls_0.memoryStateTime::ACT    3871422250                       # Time in different power states
system.mem_ctrls_0.memoryStateTime::ACT_PDN            0                       # Time in different power states
system.mem_ctrls_1.actEnergy                 40264560                       # Energy for activate commands per rank (pJ)
system.mem_ctrls_1.preEnergy                 21969750                       # Energy for precharge commands per rank (pJ)
system.mem_ctrls_1.readEnergy               141250200                       # Energy for read commands per rank (pJ)
system.mem_ctrls_1.writeEnergy               13355280                       # Energy for write commands per rank (pJ)
system.mem_ctrls_1.refreshEnergy         235337157120                       # Energy for refresh commands per rank (pJ)
system.mem_ctrls_1.actBackEnergy          82104244380                       # Energy for active background per rank (pJ)
system.mem_ctrls_1.preBackEnergy         2089840545000                       # Energy for precharge background per rank (pJ)
system.mem_ctrls_1.totalEnergy           2407498786290                       # Total energy per rank (pJ)
system.mem_ctrls_1.averagePower            668.173731                       # Core power per rank (mW)
system.mem_ctrls_1.memoryStateTime::IDLE 3475330115000                       # Time in different power states
system.mem_ctrls_1.memoryStateTime::REF  120196440000                       # Time in different power states
system.mem_ctrls_1.memoryStateTime::PRE_PDN            0                       # Time in different power states
system.mem_ctrls_1.memoryStateTime::ACT    4010102500                       # Time in different power states
system.mem_ctrls_1.memoryStateTime::ACT_PDN            0                       # Time in different power states
system.cpu_voltage_domain.voltage                   1                       # Voltage in Volts
system.cpu_clk_domain.clock                       500                       # Clock period in ticks
system.cpu0.apic_clk_domain.clock                8000                       # Clock period in ticks
system.cpu0.numCycles                      7195935892                       # number of cpu cycles simulated
system.cpu0.numWorkItemsStarted                     0                       # number of work items this cpu started
system.cpu0.numWorkItemsCompleted                   0                       # number of work items this cpu completed
system.cpu0.kern.inst.arm                           0                       # number of arm instructions executed
system.cpu0.kern.inst.quiesce                       0                       # number of quiesce instructions executed
system.cpu0.committedInsts                    2935011                       # Number of instructions committed
system.cpu0.committedOps                      6381409                       # Number of ops (including micro ops) committed
system.cpu0.num_int_alu_accesses              6245497                       # Number of integer alu accesses
system.cpu0.num_fp_alu_accesses                     0                       # Number of float alu accesses
system.cpu0.num_func_calls                     188059                       # number of times a function call or return occured
system.cpu0.num_conditional_control_insts       425685                       # number of instructions that are conditional controls
system.cpu0.num_int_insts                     6245497                       # number of integer instructions
system.cpu0.num_fp_insts                            0                       # number of float instructions
system.cpu0.num_int_register_reads           12671342                       # number of times the integer registers were read
system.cpu0.num_int_register_writes           5171619                       # number of times the integer registers were written
system.cpu0.num_fp_register_reads                   0                       # number of times the floating registers were read
system.cpu0.num_fp_register_writes                  0                       # number of times the floating registers were written
system.cpu0.num_cc_register_reads             3532484                       # number of times the CC registers were read
system.cpu0.num_cc_register_writes            1921114                       # number of times the CC registers were written
system.cpu0.num_mem_refs                      1502424                       # number of memory refs
system.cpu0.num_load_insts                     929418                       # Number of load instructions
system.cpu0.num_store_insts                    573006                       # Number of store instructions
system.cpu0.num_idle_cycles              7183474635.846260                       # Number of idle cycles
system.cpu0.num_busy_cycles              12461256.153740                       # Number of busy cycles
system.cpu0.not_idle_fraction                0.001732                       # Percentage of non-idle cycles
system.cpu0.idle_fraction                    0.998268                       # Percentage of idle cycles
system.cpu0.Branches                           670369                       # Number of branches fetched
system.cpu0.op_class::No_OpClass               108533      1.70%      1.70% # Class of executed instruction
system.cpu0.op_class::IntAlu                  4722406     74.00%     75.70% # Class of executed instruction
system.cpu0.op_class::IntMult                   12204      0.19%     75.89% # Class of executed instruction
system.cpu0.op_class::IntDiv                    35848      0.56%     76.46% # Class of executed instruction
system.cpu0.op_class::FloatAdd                      0      0.00%     76.46% # Class of executed instruction
system.cpu0.op_class::FloatCmp                      0      0.00%     76.46% # Class of executed instruction
system.cpu0.op_class::FloatCvt                      0      0.00%     76.46% # Class of executed instruction
system.cpu0.op_class::FloatMult                     0      0.00%     76.46% # Class of executed instruction
system.cpu0.op_class::FloatDiv                      0      0.00%     76.46% # Class of executed instruction
system.cpu0.op_class::FloatSqrt                     0      0.00%     76.46% # Class of executed instruction
system.cpu0.op_class::SimdAdd                       0      0.00%     76.46% # Class of executed instruction
system.cpu0.op_class::SimdAddAcc                    0      0.00%     76.46% # Class of executed instruction
system.cpu0.op_class::SimdAlu                       0      0.00%     76.46% # Class of executed instruction
system.cpu0.op_class::SimdCmp                       0      0.00%     76.46% # Class of executed instruction
system.cpu0.op_class::SimdCvt                       0      0.00%     76.46% # Class of executed instruction
system.cpu0.op_class::SimdMisc                      0      0.00%     76.46% # Class of executed instruction
system.cpu0.op_class::SimdMult                      0      0.00%     76.46% # Class of executed instruction
system.cpu0.op_class::SimdMultAcc                   0      0.00%     76.46% # Class of executed instruction
system.cpu0.op_class::SimdShift                     0      0.00%     76.46% # Class of executed instruction
system.cpu0.op_class::SimdShiftAcc                  0      0.00%     76.46% # Class of executed instruction
system.cpu0.op_class::SimdSqrt                      0      0.00%     76.46% # Class of executed instruction
system.cpu0.op_class::SimdFloatAdd                  0      0.00%     76.46% # Class of executed instruction
system.cpu0.op_class::SimdFloatAlu                  0      0.00%     76.46% # Class of executed instruction
system.cpu0.op_class::SimdFloatCmp                  0      0.00%     76.46% # Class of executed instruction
system.cpu0.op_class::SimdFloatCvt                  0      0.00%     76.46% # Class of executed instruction
system.cpu0.op_class::SimdFloatDiv                  0      0.00%     76.46% # Class of executed instruction
system.cpu0.op_class::SimdFloatMisc                 0      0.00%     76.46% # Class of executed instruction
system.cpu0.op_class::SimdFloatMult                 0      0.00%     76.46% # Class of executed instruction
system.cpu0.op_class::SimdFloatMultAcc              0      0.00%     76.46% # Class of executed instruction
system.cpu0.op_class::SimdFloatSqrt                 0      0.00%     76.46% # Class of executed instruction
system.cpu0.op_class::MemRead                  929418     14.56%     91.02% # Class of executed instruction
system.cpu0.op_class::MemWrite                 573006      8.98%    100.00% # Class of executed instruction
system.cpu0.op_class::IprAccess                     0      0.00%    100.00% # Class of executed instruction
system.cpu0.op_class::InstPrefetch                  0      0.00%    100.00% # Class of executed instruction
system.cpu0.op_class::total                   6381415                       # Class of executed instruction
system.cpu1.apic_clk_domain.clock                8000                       # Clock period in ticks
system.cpu1.numCycles                      7201944112                       # number of cpu cycles simulated
system.cpu1.numWorkItemsStarted                     0                       # number of work items this cpu started
system.cpu1.numWorkItemsCompleted                   0                       # number of work items this cpu completed
system.cpu1.kern.inst.arm                           0                       # number of arm instructions executed
system.cpu1.kern.inst.quiesce                       0                       # number of quiesce instructions executed
system.cpu1.committedInsts                    3283706                       # Number of instructions committed
system.cpu1.committedOps                      6826026                       # Number of ops (including micro ops) committed
system.cpu1.num_int_alu_accesses              6692574                       # Number of integer alu accesses
system.cpu1.num_fp_alu_accesses                  1952                       # Number of float alu accesses
system.cpu1.num_func_calls                     175311                       # number of times a function call or return occured
system.cpu1.num_conditional_control_insts       503455                       # number of instructions that are conditional controls
system.cpu1.num_int_insts                     6692574                       # number of integer instructions
system.cpu1.num_fp_insts                         1952                       # number of float instructions
system.cpu1.num_int_register_reads           13584877                       # number of times the integer registers were read
system.cpu1.num_int_register_writes           5520505                       # number of times the integer registers were written
system.cpu1.num_fp_register_reads                3276                       # number of times the floating registers were read
system.cpu1.num_fp_register_writes               1552                       # number of times the floating registers were written
system.cpu1.num_cc_register_reads             3843896                       # number of times the CC registers were read
system.cpu1.num_cc_register_writes            2100542                       # number of times the CC registers were written
system.cpu1.num_mem_refs                      1606998                       # number of memory refs
system.cpu1.num_load_insts                     997466                       # Number of load instructions
system.cpu1.num_store_insts                    609532                       # Number of store instructions
system.cpu1.num_idle_cycles              7187797000.205150                       # Number of idle cycles
system.cpu1.num_busy_cycles              14147111.794851                       # Number of busy cycles
system.cpu1.not_idle_fraction                0.001964                       # Percentage of non-idle cycles
system.cpu1.idle_fraction                    0.998036                       # Percentage of idle cycles
system.cpu1.Branches                           737683                       # Number of branches fetched
system.cpu1.op_class::No_OpClass               106476      1.56%      1.56% # Class of executed instruction
system.cpu1.op_class::IntAlu                  5059029     74.11%     75.67% # Class of executed instruction
system.cpu1.op_class::IntMult                   15034      0.22%     75.89% # Class of executed instruction
system.cpu1.op_class::IntDiv                    37123      0.54%     76.44% # Class of executed instruction
system.cpu1.op_class::FloatAdd                   1456      0.02%     76.46% # Class of executed instruction
system.cpu1.op_class::FloatCmp                      0      0.00%     76.46% # Class of executed instruction
system.cpu1.op_class::FloatCvt                      0      0.00%     76.46% # Class of executed instruction
system.cpu1.op_class::FloatMult                     0      0.00%     76.46% # Class of executed instruction
system.cpu1.op_class::FloatDiv                      0      0.00%     76.46% # Class of executed instruction
system.cpu1.op_class::FloatSqrt                     0      0.00%     76.46% # Class of executed instruction
system.cpu1.op_class::SimdAdd                       0      0.00%     76.46% # Class of executed instruction
system.cpu1.op_class::SimdAddAcc                    0      0.00%     76.46% # Class of executed instruction
system.cpu1.op_class::SimdAlu                       0      0.00%     76.46% # Class of executed instruction
system.cpu1.op_class::SimdCmp                       0      0.00%     76.46% # Class of executed instruction
system.cpu1.op_class::SimdCvt                       0      0.00%     76.46% # Class of executed instruction
system.cpu1.op_class::SimdMisc                      0      0.00%     76.46% # Class of executed instruction
system.cpu1.op_class::SimdMult                      0      0.00%     76.46% # Class of executed instruction
system.cpu1.op_class::SimdMultAcc                   0      0.00%     76.46% # Class of executed instruction
system.cpu1.op_class::SimdShift                     0      0.00%     76.46% # Class of executed instruction
system.cpu1.op_class::SimdShiftAcc                  0      0.00%     76.46% # Class of executed instruction
system.cpu1.op_class::SimdSqrt                      0      0.00%     76.46% # Class of executed instruction
system.cpu1.op_class::SimdFloatAdd                  0      0.00%     76.46% # Class of executed instruction
system.cpu1.op_class::SimdFloatAlu                  0      0.00%     76.46% # Class of executed instruction
system.cpu1.op_class::SimdFloatCmp                  0      0.00%     76.46% # Class of executed instruction
system.cpu1.op_class::SimdFloatCvt                  0      0.00%     76.46% # Class of executed instruction
system.cpu1.op_class::SimdFloatDiv                  0      0.00%     76.46% # Class of executed instruction
system.cpu1.op_class::SimdFloatMisc                 0      0.00%     76.46% # Class of executed instruction
system.cpu1.op_class::SimdFloatMult                 0      0.00%     76.46% # Class of executed instruction
system.cpu1.op_class::SimdFloatMultAcc              0      0.00%     76.46% # Class of executed instruction
system.cpu1.op_class::SimdFloatSqrt                 0      0.00%     76.46% # Class of executed instruction
system.cpu1.op_class::MemRead                  997466     14.61%     91.07% # Class of executed instruction
system.cpu1.op_class::MemWrite                 609532      8.93%    100.00% # Class of executed instruction
system.cpu1.op_class::IprAccess                     0      0.00%    100.00% # Class of executed instruction
system.cpu1.op_class::InstPrefetch                  0      0.00%    100.00% # Class of executed instruction
system.cpu1.op_class::total                   6826116                       # Class of executed instruction
system.cpu2.apic_clk_domain.clock                8000                       # Clock period in ticks
system.cpu2.numCycles                      7199461796                       # number of cpu cycles simulated
system.cpu2.numWorkItemsStarted                     0                       # number of work items this cpu started
system.cpu2.numWorkItemsCompleted                   0                       # number of work items this cpu completed
system.cpu2.kern.inst.arm                           0                       # number of arm instructions executed
system.cpu2.kern.inst.quiesce                       0                       # number of quiesce instructions executed
system.cpu2.committedInsts                   19122047                       # Number of instructions committed
system.cpu2.committedOps                     33699213                       # Number of ops (including micro ops) committed
system.cpu2.num_int_alu_accesses             28315655                       # Number of integer alu accesses
system.cpu2.num_fp_alu_accesses               8399336                       # Number of float alu accesses
system.cpu2.num_func_calls                     575485                       # number of times a function call or return occured
system.cpu2.num_conditional_control_insts      2015050                       # number of instructions that are conditional controls
system.cpu2.num_int_insts                    28315655                       # number of integer instructions
system.cpu2.num_fp_insts                      8399336                       # number of float instructions
system.cpu2.num_int_register_reads           54586648                       # number of times the integer registers were read
system.cpu2.num_int_register_writes          21508898                       # number of times the integer registers were written
system.cpu2.num_fp_register_reads            14064329                       # number of times the floating registers were read
system.cpu2.num_fp_register_writes            7474281                       # number of times the floating registers were written
system.cpu2.num_cc_register_reads            13708951                       # number of times the CC registers were read
system.cpu2.num_cc_register_writes           10147989                       # number of times the CC registers were written
system.cpu2.num_mem_refs                      7546483                       # number of memory refs
system.cpu2.num_load_insts                    5635104                       # Number of load instructions
system.cpu2.num_store_insts                   1911379                       # Number of store instructions
system.cpu2.num_idle_cycles              7128633417.312884                       # Number of idle cycles
system.cpu2.num_busy_cycles              70828378.687116                       # Number of busy cycles
system.cpu2.not_idle_fraction                0.009838                       # Percentage of non-idle cycles
system.cpu2.idle_fraction                    0.990162                       # Percentage of idle cycles
system.cpu2.Branches                          2738641                       # Number of branches fetched
system.cpu2.op_class::No_OpClass               114065      0.34%      0.34% # Class of executed instruction
system.cpu2.op_class::IntAlu                 22169698     65.79%     66.13% # Class of executed instruction
system.cpu2.op_class::IntMult                  212694      0.63%     66.76% # Class of executed instruction
system.cpu2.op_class::IntDiv                    38111      0.11%     66.87% # Class of executed instruction
system.cpu2.op_class::FloatAdd                3618219     10.74%     77.61% # Class of executed instruction
system.cpu2.op_class::FloatCmp                      0      0.00%     77.61% # Class of executed instruction
system.cpu2.op_class::FloatCvt                      0      0.00%     77.61% # Class of executed instruction
system.cpu2.op_class::FloatMult                     0      0.00%     77.61% # Class of executed instruction
system.cpu2.op_class::FloatDiv                      0      0.00%     77.61% # Class of executed instruction
system.cpu2.op_class::FloatSqrt                     0      0.00%     77.61% # Class of executed instruction
system.cpu2.op_class::SimdAdd                       0      0.00%     77.61% # Class of executed instruction
system.cpu2.op_class::SimdAddAcc                    0      0.00%     77.61% # Class of executed instruction
system.cpu2.op_class::SimdAlu                       0      0.00%     77.61% # Class of executed instruction
system.cpu2.op_class::SimdCmp                       0      0.00%     77.61% # Class of executed instruction
system.cpu2.op_class::SimdCvt                       0      0.00%     77.61% # Class of executed instruction
system.cpu2.op_class::SimdMisc                      0      0.00%     77.61% # Class of executed instruction
system.cpu2.op_class::SimdMult                      0      0.00%     77.61% # Class of executed instruction
system.cpu2.op_class::SimdMultAcc                   0      0.00%     77.61% # Class of executed instruction
system.cpu2.op_class::SimdShift                     0      0.00%     77.61% # Class of executed instruction
system.cpu2.op_class::SimdShiftAcc                  0      0.00%     77.61% # Class of executed instruction
system.cpu2.op_class::SimdSqrt                      0      0.00%     77.61% # Class of executed instruction
system.cpu2.op_class::SimdFloatAdd                  0      0.00%     77.61% # Class of executed instruction
system.cpu2.op_class::SimdFloatAlu                  0      0.00%     77.61% # Class of executed instruction
system.cpu2.op_class::SimdFloatCmp                  0      0.00%     77.61% # Class of executed instruction
system.cpu2.op_class::SimdFloatCvt                  0      0.00%     77.61% # Class of executed instruction
system.cpu2.op_class::SimdFloatDiv                  0      0.00%     77.61% # Class of executed instruction
system.cpu2.op_class::SimdFloatMisc                 0      0.00%     77.61% # Class of executed instruction
system.cpu2.op_class::SimdFloatMult                 0      0.00%     77.61% # Class of executed instruction
system.cpu2.op_class::SimdFloatMultAcc              0      0.00%     77.61% # Class of executed instruction
system.cpu2.op_class::SimdFloatSqrt                 0      0.00%     77.61% # Class of executed instruction
system.cpu2.op_class::MemRead                 5635104     16.72%     94.33% # Class of executed instruction
system.cpu2.op_class::MemWrite                1911379      5.67%    100.00% # Class of executed instruction
system.cpu2.op_class::IprAccess                     0      0.00%    100.00% # Class of executed instruction
system.cpu2.op_class::InstPrefetch                  0      0.00%    100.00% # Class of executed instruction
system.cpu2.op_class::total                  33699270                       # Class of executed instruction
system.cpu3.apic_clk_domain.clock                8000                       # Clock period in ticks
system.cpu3.numCycles                      7200608347                       # number of cpu cycles simulated
system.cpu3.numWorkItemsStarted                     0                       # number of work items this cpu started
system.cpu3.numWorkItemsCompleted                   0                       # number of work items this cpu completed
system.cpu3.kern.inst.arm                           0                       # number of arm instructions executed
system.cpu3.kern.inst.quiesce                       0                       # number of quiesce instructions executed
system.cpu3.committedInsts                 1994006934                       # Number of instructions committed
system.cpu3.committedOps                   3391943943                       # Number of ops (including micro ops) committed
system.cpu3.num_int_alu_accesses           2756605828                       # Number of integer alu accesses
system.cpu3.num_fp_alu_accesses            1010088517                       # Number of float alu accesses
system.cpu3.num_func_calls                   49906863                       # number of times a function call or return occured
system.cpu3.num_conditional_control_insts    199771507                       # number of instructions that are conditional controls
system.cpu3.num_int_insts                  2756605828                       # number of integer instructions
system.cpu3.num_fp_insts                   1010088517                       # number of float instructions
system.cpu3.num_int_register_reads         5216375457                       # number of times the integer registers were read
system.cpu3.num_int_register_writes        2051822154                       # number of times the integer registers were written
system.cpu3.num_fp_register_reads          1701898740                       # number of times the floating registers were read
system.cpu3.num_fp_register_writes          899765659                       # number of times the floating registers were written
system.cpu3.num_cc_register_reads          1288181942                       # number of times the CC registers were read
system.cpu3.num_cc_register_writes         1039068210                       # number of times the CC registers were written
system.cpu3.num_mem_refs                    738017975                       # number of memory refs
system.cpu3.num_load_insts                  571673754                       # Number of load instructions
system.cpu3.num_store_insts                 166344221                       # Number of store instructions
system.cpu3.num_idle_cycles              64048031.396505                       # Number of idle cycles
system.cpu3.num_busy_cycles              7136560315.603495                       # Number of busy cycles
system.cpu3.not_idle_fraction                0.991105                       # Percentage of non-idle cycles
system.cpu3.idle_fraction                    0.008895                       # Percentage of idle cycles
system.cpu3.Branches                        261082525                       # Number of branches fetched
system.cpu3.op_class::No_OpClass              1505719      0.04%      0.04% # Class of executed instruction
system.cpu3.op_class::IntAlu               2188550552     64.52%     64.57% # Class of executed instruction
system.cpu3.op_class::IntMult                24039698      0.71%     65.28% # Class of executed instruction
system.cpu3.op_class::IntDiv                   210787      0.01%     65.28% # Class of executed instruction
system.cpu3.op_class::FloatAdd              439619365     12.96%     78.24% # Class of executed instruction
system.cpu3.op_class::FloatCmp                      0      0.00%     78.24% # Class of executed instruction
system.cpu3.op_class::FloatCvt                      0      0.00%     78.24% # Class of executed instruction
system.cpu3.op_class::FloatMult                     0      0.00%     78.24% # Class of executed instruction
system.cpu3.op_class::FloatDiv                      0      0.00%     78.24% # Class of executed instruction
system.cpu3.op_class::FloatSqrt                     0      0.00%     78.24% # Class of executed instruction
system.cpu3.op_class::SimdAdd                       0      0.00%     78.24% # Class of executed instruction
system.cpu3.op_class::SimdAddAcc                    0      0.00%     78.24% # Class of executed instruction
system.cpu3.op_class::SimdAlu                       0      0.00%     78.24% # Class of executed instruction
system.cpu3.op_class::SimdCmp                       0      0.00%     78.24% # Class of executed instruction
system.cpu3.op_class::SimdCvt                       0      0.00%     78.24% # Class of executed instruction
system.cpu3.op_class::SimdMisc                      0      0.00%     78.24% # Class of executed instruction
system.cpu3.op_class::SimdMult                      0      0.00%     78.24% # Class of executed instruction
system.cpu3.op_class::SimdMultAcc                   0      0.00%     78.24% # Class of executed instruction
system.cpu3.op_class::SimdShift                     0      0.00%     78.24% # Class of executed instruction
system.cpu3.op_class::SimdShiftAcc                  0      0.00%     78.24% # Class of executed instruction
system.cpu3.op_class::SimdSqrt                      0      0.00%     78.24% # Class of executed instruction
system.cpu3.op_class::SimdFloatAdd                  0      0.00%     78.24% # Class of executed instruction
system.cpu3.op_class::SimdFloatAlu                  0      0.00%     78.24% # Class of executed instruction
system.cpu3.op_class::SimdFloatCmp                  0      0.00%     78.24% # Class of executed instruction
system.cpu3.op_class::SimdFloatCvt                  0      0.00%     78.24% # Class of executed instruction
system.cpu3.op_class::SimdFloatDiv                  0      0.00%     78.24% # Class of executed instruction
system.cpu3.op_class::SimdFloatMisc                 0      0.00%     78.24% # Class of executed instruction
system.cpu3.op_class::SimdFloatMult                 0      0.00%     78.24% # Class of executed instruction
system.cpu3.op_class::SimdFloatMultAcc              0      0.00%     78.24% # Class of executed instruction
system.cpu3.op_class::SimdFloatSqrt                 0      0.00%     78.24% # Class of executed instruction
system.cpu3.op_class::MemRead               571673754     16.85%     95.10% # Class of executed instruction
system.cpu3.op_class::MemWrite              166344221      4.90%    100.00% # Class of executed instruction
system.cpu3.op_class::IprAccess                     0      0.00%    100.00% # Class of executed instruction
system.cpu3.op_class::InstPrefetch                  0      0.00%    100.00% # Class of executed instruction
system.cpu3.op_class::total                3391944096                       # Class of executed instruction
system.iobus.trans_dist::ReadReq                  117                       # Transaction distribution
system.iobus.trans_dist::ReadResp                 117                       # Transaction distribution
system.iobus.trans_dist::WriteReq                3734                       # Transaction distribution
system.iobus.trans_dist::WriteResp               3734                       # Transaction distribution
system.iobus.trans_dist::MessageReq                19                       # Transaction distribution
system.iobus.trans_dist::MessageResp               19                       # Transaction distribution
system.iobus.pkt_count_system.pc.south_bridge.io_apic.int_master::system.ruby.l1_cntrl0.sequencer.pio-slave-port            4                       # Packet count per connected master and slave (bytes)
system.iobus.pkt_count_system.pc.south_bridge.io_apic.int_master::system.ruby.l1_cntrl1.sequencer.pio-slave-port            6                       # Packet count per connected master and slave (bytes)
system.iobus.pkt_count_system.pc.south_bridge.io_apic.int_master::system.ruby.l1_cntrl2.sequencer.pio-slave-port            4                       # Packet count per connected master and slave (bytes)
system.iobus.pkt_count_system.pc.south_bridge.io_apic.int_master::system.ruby.l1_cntrl3.sequencer.pio-slave-port            4                       # Packet count per connected master and slave (bytes)
system.iobus.pkt_count_system.pc.south_bridge.io_apic.int_master::total           18                       # Packet count per connected master and slave (bytes)
system.iobus.pkt_count_system.ruby.l1_cntrl0.sequencer.mem-master-port::system.pc.south_bridge.ide.pio           46                       # Packet count per connected master and slave (bytes)
system.iobus.pkt_count_system.ruby.l1_cntrl0.sequencer.mem-master-port::system.pc.south_bridge.io_apic.pio            6                       # Packet count per connected master and slave (bytes)
system.iobus.pkt_count_system.ruby.l1_cntrl0.sequencer.mem-master-port::system.pc.com_1.pio           22                       # Packet count per connected master and slave (bytes)
system.iobus.pkt_count_system.ruby.l1_cntrl0.sequencer.mem-master-port::system.ruby.l1_cntrl0.sequencer.pio-slave-port         1820                       # Packet count per connected master and slave (bytes)
system.iobus.pkt_count_system.ruby.l1_cntrl0.sequencer.mem-master-port::system.ruby.l1_cntrl1.sequencer.pio-slave-port            2                       # Packet count per connected master and slave (bytes)
system.iobus.pkt_count_system.ruby.l1_cntrl0.sequencer.mem-master-port::system.ruby.l1_cntrl2.sequencer.pio-slave-port            2                       # Packet count per connected master and slave (bytes)
system.iobus.pkt_count_system.ruby.l1_cntrl0.sequencer.mem-master-port::total         1898                       # Packet count per connected master and slave (bytes)
system.iobus.pkt_count_system.ruby.l1_cntrl1.sequencer.mem-master-port::system.pc.south_bridge.ide.pio           46                       # Packet count per connected master and slave (bytes)
system.iobus.pkt_count_system.ruby.l1_cntrl1.sequencer.mem-master-port::system.pc.south_bridge.io_apic.pio           14                       # Packet count per connected master and slave (bytes)
system.iobus.pkt_count_system.ruby.l1_cntrl1.sequencer.mem-master-port::system.pc.com_1.pio          162                       # Packet count per connected master and slave (bytes)
system.iobus.pkt_count_system.ruby.l1_cntrl1.sequencer.mem-master-port::system.ruby.l1_cntrl0.sequencer.pio-slave-port            2                       # Packet count per connected master and slave (bytes)
system.iobus.pkt_count_system.ruby.l1_cntrl1.sequencer.mem-master-port::system.ruby.l1_cntrl1.sequencer.pio-slave-port         1824                       # Packet count per connected master and slave (bytes)
system.iobus.pkt_count_system.ruby.l1_cntrl1.sequencer.mem-master-port::system.ruby.l1_cntrl2.sequencer.pio-slave-port            2                       # Packet count per connected master and slave (bytes)
system.iobus.pkt_count_system.ruby.l1_cntrl1.sequencer.mem-master-port::total         2050                       # Packet count per connected master and slave (bytes)
system.iobus.pkt_count_system.ruby.l1_cntrl2.sequencer.mem-master-port::system.pc.south_bridge.ide.pio           80                       # Packet count per connected master and slave (bytes)
system.iobus.pkt_count_system.ruby.l1_cntrl2.sequencer.mem-master-port::system.pc.south_bridge.io_apic.pio            8                       # Packet count per connected master and slave (bytes)
system.iobus.pkt_count_system.ruby.l1_cntrl2.sequencer.mem-master-port::system.ruby.l1_cntrl1.sequencer.pio-slave-port            2                       # Packet count per connected master and slave (bytes)
system.iobus.pkt_count_system.ruby.l1_cntrl2.sequencer.mem-master-port::system.ruby.l1_cntrl2.sequencer.pio-slave-port         1824                       # Packet count per connected master and slave (bytes)
system.iobus.pkt_count_system.ruby.l1_cntrl2.sequencer.mem-master-port::system.ruby.l1_cntrl3.sequencer.pio-slave-port            2                       # Packet count per connected master and slave (bytes)
system.iobus.pkt_count_system.ruby.l1_cntrl2.sequencer.mem-master-port::total         1916                       # Packet count per connected master and slave (bytes)
system.iobus.pkt_count_system.ruby.l1_cntrl3.sequencer.mem-master-port::system.pc.south_bridge.ide.pio           12                       # Packet count per connected master and slave (bytes)
system.iobus.pkt_count_system.ruby.l1_cntrl3.sequencer.mem-master-port::system.pc.south_bridge.io_apic.pio            8                       # Packet count per connected master and slave (bytes)
system.iobus.pkt_count_system.ruby.l1_cntrl3.sequencer.mem-master-port::system.ruby.l1_cntrl0.sequencer.pio-slave-port            2                       # Packet count per connected master and slave (bytes)
system.iobus.pkt_count_system.ruby.l1_cntrl3.sequencer.mem-master-port::system.ruby.l1_cntrl1.sequencer.pio-slave-port            2                       # Packet count per connected master and slave (bytes)
system.iobus.pkt_count_system.ruby.l1_cntrl3.sequencer.mem-master-port::system.ruby.l1_cntrl2.sequencer.pio-slave-port            4                       # Packet count per connected master and slave (bytes)
system.iobus.pkt_count_system.ruby.l1_cntrl3.sequencer.mem-master-port::system.ruby.l1_cntrl3.sequencer.pio-slave-port         1830                       # Packet count per connected master and slave (bytes)
system.iobus.pkt_count_system.ruby.l1_cntrl3.sequencer.mem-master-port::total         1858                       # Packet count per connected master and slave (bytes)
system.iobus.pkt_count::total                    7740                       # Packet count per connected master and slave (bytes)
system.iobus.pkt_size_system.pc.south_bridge.io_apic.int_master::system.ruby.l1_cntrl0.sequencer.pio-slave-port            8                       # Cumulative packet size per connected master and slave (bytes)
system.iobus.pkt_size_system.pc.south_bridge.io_apic.int_master::system.ruby.l1_cntrl1.sequencer.pio-slave-port           12                       # Cumulative packet size per connected master and slave (bytes)
system.iobus.pkt_size_system.pc.south_bridge.io_apic.int_master::system.ruby.l1_cntrl2.sequencer.pio-slave-port            8                       # Cumulative packet size per connected master and slave (bytes)
system.iobus.pkt_size_system.pc.south_bridge.io_apic.int_master::system.ruby.l1_cntrl3.sequencer.pio-slave-port            8                       # Cumulative packet size per connected master and slave (bytes)
system.iobus.pkt_size_system.pc.south_bridge.io_apic.int_master::total           36                       # Cumulative packet size per connected master and slave (bytes)
system.iobus.pkt_size_system.ruby.l1_cntrl0.sequencer.mem-master-port::system.pc.south_bridge.ide.pio           26                       # Cumulative packet size per connected master and slave (bytes)
system.iobus.pkt_size_system.ruby.l1_cntrl0.sequencer.mem-master-port::system.pc.south_bridge.io_apic.pio           12                       # Cumulative packet size per connected master and slave (bytes)
system.iobus.pkt_size_system.ruby.l1_cntrl0.sequencer.mem-master-port::system.pc.com_1.pio           11                       # Cumulative packet size per connected master and slave (bytes)
system.iobus.pkt_size_system.ruby.l1_cntrl0.sequencer.mem-master-port::system.ruby.l1_cntrl0.sequencer.pio-slave-port         3640                       # Cumulative packet size per connected master and slave (bytes)
system.iobus.pkt_size_system.ruby.l1_cntrl0.sequencer.mem-master-port::system.ruby.l1_cntrl1.sequencer.pio-slave-port            4                       # Cumulative packet size per connected master and slave (bytes)
system.iobus.pkt_size_system.ruby.l1_cntrl0.sequencer.mem-master-port::system.ruby.l1_cntrl2.sequencer.pio-slave-port            4                       # Cumulative packet size per connected master and slave (bytes)
system.iobus.pkt_size_system.ruby.l1_cntrl0.sequencer.mem-master-port::total         3697                       # Cumulative packet size per connected master and slave (bytes)
system.iobus.pkt_size_system.ruby.l1_cntrl1.sequencer.mem-master-port::system.pc.south_bridge.ide.pio           26                       # Cumulative packet size per connected master and slave (bytes)
system.iobus.pkt_size_system.ruby.l1_cntrl1.sequencer.mem-master-port::system.pc.south_bridge.io_apic.pio           28                       # Cumulative packet size per connected master and slave (bytes)
system.iobus.pkt_size_system.ruby.l1_cntrl1.sequencer.mem-master-port::system.pc.com_1.pio           81                       # Cumulative packet size per connected master and slave (bytes)
system.iobus.pkt_size_system.ruby.l1_cntrl1.sequencer.mem-master-port::system.ruby.l1_cntrl0.sequencer.pio-slave-port            4                       # Cumulative packet size per connected master and slave (bytes)
system.iobus.pkt_size_system.ruby.l1_cntrl1.sequencer.mem-master-port::system.ruby.l1_cntrl1.sequencer.pio-slave-port         3648                       # Cumulative packet size per connected master and slave (bytes)
system.iobus.pkt_size_system.ruby.l1_cntrl1.sequencer.mem-master-port::system.ruby.l1_cntrl2.sequencer.pio-slave-port            4                       # Cumulative packet size per connected master and slave (bytes)
system.iobus.pkt_size_system.ruby.l1_cntrl1.sequencer.mem-master-port::total         3791                       # Cumulative packet size per connected master and slave (bytes)
system.iobus.pkt_size_system.ruby.l1_cntrl2.sequencer.mem-master-port::system.pc.south_bridge.ide.pio           46                       # Cumulative packet size per connected master and slave (bytes)
system.iobus.pkt_size_system.ruby.l1_cntrl2.sequencer.mem-master-port::system.pc.south_bridge.io_apic.pio           16                       # Cumulative packet size per connected master and slave (bytes)
system.iobus.pkt_size_system.ruby.l1_cntrl2.sequencer.mem-master-port::system.ruby.l1_cntrl1.sequencer.pio-slave-port            4                       # Cumulative packet size per connected master and slave (bytes)
system.iobus.pkt_size_system.ruby.l1_cntrl2.sequencer.mem-master-port::system.ruby.l1_cntrl2.sequencer.pio-slave-port         3648                       # Cumulative packet size per connected master and slave (bytes)
system.iobus.pkt_size_system.ruby.l1_cntrl2.sequencer.mem-master-port::system.ruby.l1_cntrl3.sequencer.pio-slave-port            4                       # Cumulative packet size per connected master and slave (bytes)
system.iobus.pkt_size_system.ruby.l1_cntrl2.sequencer.mem-master-port::total         3718                       # Cumulative packet size per connected master and slave (bytes)
system.iobus.pkt_size_system.ruby.l1_cntrl3.sequencer.mem-master-port::system.pc.south_bridge.ide.pio            6                       # Cumulative packet size per connected master and slave (bytes)
system.iobus.pkt_size_system.ruby.l1_cntrl3.sequencer.mem-master-port::system.pc.south_bridge.io_apic.pio           16                       # Cumulative packet size per connected master and slave (bytes)
system.iobus.pkt_size_system.ruby.l1_cntrl3.sequencer.mem-master-port::system.ruby.l1_cntrl0.sequencer.pio-slave-port            4                       # Cumulative packet size per connected master and slave (bytes)
system.iobus.pkt_size_system.ruby.l1_cntrl3.sequencer.mem-master-port::system.ruby.l1_cntrl1.sequencer.pio-slave-port            4                       # Cumulative packet size per connected master and slave (bytes)
system.iobus.pkt_size_system.ruby.l1_cntrl3.sequencer.mem-master-port::system.ruby.l1_cntrl2.sequencer.pio-slave-port            8                       # Cumulative packet size per connected master and slave (bytes)
system.iobus.pkt_size_system.ruby.l1_cntrl3.sequencer.mem-master-port::system.ruby.l1_cntrl3.sequencer.pio-slave-port         3660                       # Cumulative packet size per connected master and slave (bytes)
system.iobus.pkt_size_system.ruby.l1_cntrl3.sequencer.mem-master-port::total         3698                       # Cumulative packet size per connected master and slave (bytes)
system.iobus.pkt_size::total                    14940                       # Cumulative packet size per connected master and slave (bytes)
system.iobus.reqLayer2.occupancy               163000                       # Layer occupancy (ticks)
system.iobus.reqLayer2.utilization                0.0                       # Layer utilization (%)
system.iobus.reqLayer8.occupancy                32996                       # Layer occupancy (ticks)
system.iobus.reqLayer8.utilization                0.0                       # Layer utilization (%)
system.iobus.reqLayer12.occupancy              119500                       # Layer occupancy (ticks)
system.iobus.reqLayer12.utilization               0.0                       # Layer utilization (%)
system.iobus.reqLayer17.occupancy             2277998                       # Layer occupancy (ticks)
system.iobus.reqLayer17.utilization               0.0                       # Layer utilization (%)
system.iobus.reqLayer18.occupancy             2286498                       # Layer occupancy (ticks)
system.iobus.reqLayer18.utilization               0.0                       # Layer utilization (%)
system.iobus.reqLayer19.occupancy             2287994                       # Layer occupancy (ticks)
system.iobus.reqLayer19.utilization               0.0                       # Layer utilization (%)
system.iobus.reqLayer20.occupancy             2077981                       # Layer occupancy (ticks)
system.iobus.reqLayer20.utilization               0.0                       # Layer utilization (%)
system.iobus.respLayer0.occupancy               13496                       # Layer occupancy (ticks)
system.iobus.respLayer0.utilization               0.0                       # Layer utilization (%)
system.iobus.respLayer2.occupancy             1423000                       # Layer occupancy (ticks)
system.iobus.respLayer2.utilization               0.0                       # Layer utilization (%)
system.iobus.respLayer4.occupancy             1553000                       # Layer occupancy (ticks)
system.iobus.respLayer4.utilization               0.0                       # Layer utilization (%)
system.iobus.respLayer6.occupancy             1430000                       # Layer occupancy (ticks)
system.iobus.respLayer6.utilization               0.0                       # Layer utilization (%)
system.iobus.respLayer8.occupancy             1396500                       # Layer occupancy (ticks)
system.iobus.respLayer8.utilization               0.0                       # Layer utilization (%)
system.pc.south_bridge.ide.disks.dma_read_full_pages            1                       # Number of full page size DMA reads (not PRD).
system.pc.south_bridge.ide.disks.dma_read_bytes         4096                       # Number of bytes transfered via DMA reads (not PRD).
system.pc.south_bridge.ide.disks.dma_read_txs            1                       # Number of DMA read transactions (not PRD).
system.pc.south_bridge.ide.disks.dma_write_full_pages           45                       # Number of full page size DMA writes.
system.pc.south_bridge.ide.disks.dma_write_bytes       184320                       # Number of bytes transfered via DMA writes.
system.pc.south_bridge.ide.disks.dma_write_txs           45                       # Number of DMA write transactions.
system.ruby.clk_domain.clock                      500                       # Clock period in ticks
system.ruby.outstanding_req_hist_seqr::bucket_size            1                      
system.ruby.outstanding_req_hist_seqr::max_bucket            9                      
system.ruby.outstanding_req_hist_seqr::samples   3588726227                      
system.ruby.outstanding_req_hist_seqr::mean     1.000000                      
system.ruby.outstanding_req_hist_seqr::gmean     1.000000                      
system.ruby.outstanding_req_hist_seqr::stdev     0.000249                      
system.ruby.outstanding_req_hist_seqr    |           0      0.00%      0.00% |  3588726004    100.00%    100.00% |         223      0.00%    100.00% |           0      0.00%    100.00% |           0      0.00%    100.00% |           0      0.00%    100.00% |           0      0.00%    100.00% |           0      0.00%    100.00% |           0      0.00%    100.00% |           0      0.00%    100.00%
system.ruby.outstanding_req_hist_seqr::total   3588726227                      
system.ruby.latency_hist_seqr::bucket_size          128                      
system.ruby.latency_hist_seqr::max_bucket         1279                      
system.ruby.latency_hist_seqr::samples     3588726227                      
system.ruby.latency_hist_seqr::mean          1.015102                      
system.ruby.latency_hist_seqr::gmean         1.002522                      
system.ruby.latency_hist_seqr::stdev         0.589003                      
system.ruby.latency_hist_seqr            |  3588721094    100.00%    100.00% |        4848      0.00%    100.00% |          54      0.00%    100.00% |          40      0.00%    100.00% |         135      0.00%    100.00% |          56      0.00%    100.00% |           0      0.00%    100.00% |           0      0.00%    100.00% |           0      0.00%    100.00% |           0      0.00%    100.00%
system.ruby.latency_hist_seqr::total       3588726227                      
system.ruby.hit_latency_hist_seqr::bucket_size            1                      
system.ruby.hit_latency_hist_seqr::max_bucket            9                      
[...]
system.ruby.L1Cache_Controller.S.Fwd_GETS::total         1987                      
system.ruby.L1Cache_Controller.S.Inv     |        3822     15.27%     15.27% |        5806     23.19%     38.46% |       10476     41.85%     80.31% |        4930     19.69%    100.00%
system.ruby.L1Cache_Controller.S.Inv::total        25034                      
system.ruby.L1Cache_Controller.O.Load    |        5358     39.67%     39.67% |        2271     16.81%     56.48% |        5336     39.51%     95.99% |         542      4.01%    100.00%
system.ruby.L1Cache_Controller.O.Load::total        13507                      
system.ruby.L1Cache_Controller.O.Store   |          41     16.67%     16.67% |         106     43.09%     59.76% |          63     25.61%     85.37% |          36     14.63%    100.00%
system.ruby.L1Cache_Controller.O.Store::total          246                      
system.ruby.L1Cache_Controller.O.L1_Replacement |         109     17.06%     17.06% |         187     29.26%     46.32% |         170     26.60%     72.93% |         173     27.07%    100.00%
system.ruby.L1Cache_Controller.O.L1_Replacement::total          639                      
system.ruby.L1Cache_Controller.O.Fwd_GETX |        6223     33.87%     33.87% |        8212     44.70%     78.57% |        3721     20.25%     98.82% |         217      1.18%    100.00%
system.ruby.L1Cache_Controller.O.Fwd_GETX::total        18373                      
system.ruby.L1Cache_Controller.O.Fwd_GETS |        5790     25.54%     25.54% |        9046     39.90%     65.44% |        7617     33.60%     99.03% |         219      0.97%    100.00%
system.ruby.L1Cache_Controller.O.Fwd_GETS::total        22672                      
system.ruby.L1Cache_Controller.M.Load    |       44270      0.23%      0.23% |       97351      0.50%      0.73% |      325391      1.67%      2.39% |    19045077     97.61%    100.00%
system.ruby.L1Cache_Controller.M.Load::total     19512089                      
system.ruby.L1Cache_Controller.M.Store   |        2266      1.24%      1.24% |        4673      2.55%      3.79% |        3558      1.94%      5.73% |      172676     94.27%    100.00%
system.ruby.L1Cache_Controller.M.Store::total       183173                      
system.ruby.L1Cache_Controller.M.L1_Replacement |        2824      4.65%      4.65% |        4418      7.28%     11.93% |        2537      4.18%     16.11% |       50907     83.89%    100.00%
system.ruby.L1Cache_Controller.M.L1_Replacement::total        60686                      
system.ruby.L1Cache_Controller.M.Fwd_GETX |         537     41.34%     41.34% |         394     30.33%     71.67% |         226     17.40%     89.07% |         142     10.93%    100.00%
system.ruby.L1Cache_Controller.M.Fwd_GETX::total         1299                      
system.ruby.L1Cache_Controller.M.Fwd_GETS |        6402     33.46%     33.46% |        8497     44.41%     77.86% |        3926     20.52%     98.38% |         310      1.62%    100.00%
system.ruby.L1Cache_Controller.M.Fwd_GETS::total        19135                      
system.ruby.L1Cache_Controller.M_W.Load  |        9057     11.77%     11.77% |       14302     18.59%     30.36% |        4084      5.31%     35.67% |       49496     64.33%    100.00%
system.ruby.L1Cache_Controller.M_W.Load::total        76939                      
system.ruby.L1Cache_Controller.M_W.Store |        1421      3.71%      3.71% |        1310      3.42%      7.12% |         737      1.92%      9.04% |       34884     90.96%    100.00%
system.ruby.L1Cache_Controller.M_W.Store::total        38352                      
system.ruby.L1Cache_Controller.M_W.Fwd_GETX |           0      0.00%      0.00% |          12     16.00%     16.00% |          51     68.00%     84.00% |          12     16.00%    100.00%
system.ruby.L1Cache_Controller.M_W.Fwd_GETX::total           75                      
system.ruby.L1Cache_Controller.M_W.Fwd_GETS |          63     15.40%     15.40% |          97     23.72%     39.12% |         155     37.90%     77.02% |          94     22.98%    100.00%
system.ruby.L1Cache_Controller.M_W.Fwd_GETS::total          409                      
system.ruby.L1Cache_Controller.M_W.Use_Timeout |       11949      4.52%      4.52% |       18092      6.85%     11.37% |       10135      3.84%     15.21% |      224043     84.79%    100.00%
system.ruby.L1Cache_Controller.M_W.Use_Timeout::total       264219                      
system.ruby.L1Cache_Controller.MM.Load   |     1019025      0.29%      0.29% |      871455      0.25%      0.54% |     3412638      0.98%      1.52% |   343061295     98.48%    100.00%
system.ruby.L1Cache_Controller.MM.Load::total    348364413                      
system.ruby.L1Cache_Controller.MM.Store  |     1013386      0.58%      0.58% |      880475      0.50%      1.08% |     2097463      1.20%      2.28% |   170755617     97.72%    100.00%
system.ruby.L1Cache_Controller.MM.Store::total    174746941                      
system.ruby.L1Cache_Controller.MM.L1_Replacement |       13500      1.32%      1.32% |       19233      1.88%      3.20% |       22135      2.16%      5.37% |      967692     94.63%    100.00%
system.ruby.L1Cache_Controller.MM.L1_Replacement::total      1022560                      
system.ruby.L1Cache_Controller.MM.Fwd_GETX |        1536     23.52%     23.52% |        1300     19.90%     43.42% |        1976     30.25%     73.67% |        1720     26.33%    100.00%
system.ruby.L1Cache_Controller.MM.Fwd_GETX::total         6532                      
system.ruby.L1Cache_Controller.MM.Fwd_GETS |        9927     40.42%     40.42% |        4891     19.91%     60.33% |        5259     21.41%     81.74% |        4485     18.26%    100.00%
system.ruby.L1Cache_Controller.MM.Fwd_GETS::total        24562                      
system.ruby.L1Cache_Controller.MM.Fwd_DMA |           2      5.88%      5.88% |          12     35.29%     41.18% |          18     52.94%     94.12% |           2      5.88%    100.00%
system.ruby.L1Cache_Controller.MM.Fwd_DMA::total           34                      
system.ruby.L1Cache_Controller.MM_W.Load |        3195     12.44%     12.44% |        1666      6.49%     18.93% |        1503      5.85%     24.78% |       19313     75.22%    100.00%
system.ruby.L1Cache_Controller.MM_W.Load::total        25677                      
system.ruby.L1Cache_Controller.MM_W.Store |       77256      6.97%      6.97% |       81477      7.35%     14.33% |       47701      4.30%     18.63% |      901628     81.37%    100.00%
system.ruby.L1Cache_Controller.MM_W.Store::total      1108062                      
system.ruby.L1Cache_Controller.MM_W.Fwd_GETX |           7     36.84%     36.84% |           6     31.58%     68.42% |           0      0.00%     68.42% |           6     31.58%    100.00%
system.ruby.L1Cache_Controller.MM_W.Fwd_GETX::total           19                      
system.ruby.L1Cache_Controller.MM_W.Fwd_GETS |         553     19.14%     19.14% |         935     32.36%     51.51% |         844     29.21%     80.72% |         557     19.28%    100.00%
system.ruby.L1Cache_Controller.MM_W.Fwd_GETS::total         2889                      
system.ruby.L1Cache_Controller.MM_W.Use_Timeout |       22581      2.59%      2.59% |       21049      2.42%      5.01% |       25575      2.94%      7.95% |      801342     92.05%    100.00%
system.ruby.L1Cache_Controller.MM_W.Use_Timeout::total       870547                      
system.ruby.L1Cache_Controller.IM.Ack    |       10353     41.01%     41.01% |        4904     19.43%     60.44% |        4555     18.04%     78.49% |        5431     21.51%    100.00%
system.ruby.L1Cache_Controller.IM.Ack::total        25243                      
system.ruby.L1Cache_Controller.IM.Exclusive_Data |       15527      1.91%      1.91% |       16637      2.05%      3.95% |       22147      2.72%      6.68% |      759093     93.32%    100.00%
system.ruby.L1Cache_Controller.IM.Exclusive_Data::total       813404                      
system.ruby.L1Cache_Controller.SM.Ack    |       11487     47.36%     47.36% |        3644     15.02%     62.38% |        3761     15.50%     77.88% |        5365     22.12%    100.00%
system.ruby.L1Cache_Controller.SM.Ack::total        24257                      
system.ruby.L1Cache_Controller.SM.Exclusive_Data |        5592     30.15%     30.15% |        2996     16.16%     46.31% |        2628     14.17%     60.48% |        7329     39.52%    100.00%
system.ruby.L1Cache_Controller.SM.Exclusive_Data::total        18545                      
system.ruby.L1Cache_Controller.OM.Own_GETX |          41     16.67%     16.67% |         106     43.09%     59.76% |          63     25.61%     85.37% |          36     14.63%    100.00%
system.ruby.L1Cache_Controller.OM.Own_GETX::total          246                      
system.ruby.L1Cache_Controller.OM.Ack    |         457     23.51%     23.51% |         558     28.70%     52.21% |         265     13.63%     65.84% |         664     34.16%    100.00%
system.ruby.L1Cache_Controller.OM.Ack::total         1944                      
system.ruby.L1Cache_Controller.OM.All_acks |       21160      2.54%      2.54% |       19739      2.37%      4.91% |       24838      2.98%      7.90% |      766458     92.10%    100.00%
system.ruby.L1Cache_Controller.OM.All_acks::total       832195                      
system.ruby.L1Cache_Controller.IS.Data   |       74650      3.41%      3.41% |       80865      3.69%      7.10% |       76553      3.50%     10.60% |     1957875     89.40%    100.00%
system.ruby.L1Cache_Controller.IS.Data::total      2189943                      
system.ruby.L1Cache_Controller.IS.Exclusive_Data |       13370      4.42%      4.42% |       19402      6.41%     10.83% |       10872      3.59%     14.42% |      258927     85.58%    100.00%
system.ruby.L1Cache_Controller.IS.Exclusive_Data::total       302571                      
system.ruby.L1Cache_Controller.SI.Load   |           1     10.00%     10.00% |           4     40.00%     50.00% |           0      0.00%     50.00% |           5     50.00%    100.00%
system.ruby.L1Cache_Controller.SI.Load::total           10                      
system.ruby.L1Cache_Controller.SI.Ifetch |           0      0.00%      0.00% |           1     14.29%     14.29% |           0      0.00%     14.29% |           6     85.71%    100.00%
system.ruby.L1Cache_Controller.SI.Ifetch::total            7                      
system.ruby.L1Cache_Controller.SI.Writeback_Ack |       61722      2.91%      2.91% |       64906      3.06%      5.97% |       60400      2.85%      8.81% |     1935218     91.19%    100.00%
system.ruby.L1Cache_Controller.SI.Writeback_Ack::total      2122246                      
system.ruby.L1Cache_Controller.SI.Writeback_Ack_Data |        3574     15.04%     15.04% |        6896     29.02%     44.06% |        2924     12.31%     56.37% |       10367     43.63%    100.00%
system.ruby.L1Cache_Controller.SI.Writeback_Ack_Data::total        23761                      
system.ruby.L1Cache_Controller.OI.Writeback_Ack_Data |         109     17.06%     17.06% |         187     29.26%     46.32% |         170     26.60%     72.93% |         173     27.07%    100.00%
system.ruby.L1Cache_Controller.OI.Writeback_Ack_Data::total          639                      
system.ruby.L1Cache_Controller.MI.Load   |           0      0.00%      0.00% |           3     42.86%     42.86% |           3     42.86%     85.71% |           1     14.29%    100.00%
system.ruby.L1Cache_Controller.MI.Load::total            7                      
system.ruby.L1Cache_Controller.MI.Writeback_Ack_Data |       16324      1.51%      1.51% |       23651      2.18%      3.69% |       24672      2.28%      5.97% |     1018599     94.03%    100.00%
system.ruby.L1Cache_Controller.MI.Writeback_Ack_Data::total      1083246                      
system.ruby.L2Cache_Controller.L1_GETS        2493337      0.00%      0.00%
system.ruby.L2Cache_Controller.L1_GETX         832204      0.00%      0.00%
system.ruby.L2Cache_Controller.L1_PUTO            639      0.00%      0.00%
system.ruby.L2Cache_Controller.L1_PUTX        1083246      0.00%      0.00%
system.ruby.L2Cache_Controller.L1_PUTS_only      1848034      0.00%      0.00%
system.ruby.L2Cache_Controller.L1_PUTS         297978      0.00%      0.00%
system.ruby.L2Cache_Controller.Fwd_GETX            64      0.00%      0.00%
system.ruby.L2Cache_Controller.Fwd_DMA             49      0.00%      0.00%
system.ruby.L2Cache_Controller.All_Acks         35540      0.00%      0.00%
system.ruby.L2Cache_Controller.Data             65482      0.00%      0.00%
system.ruby.L2Cache_Controller.Data_Exclusive           40      0.00%      0.00%
system.ruby.L2Cache_Controller.L1_WBCLEANDATA        23761      0.00%      0.00%
system.ruby.L2Cache_Controller.L1_WBDIRTYDATA      1083885      0.00%      0.00%
system.ruby.L2Cache_Controller.Writeback_Ack        22166      0.00%      0.00%
system.ruby.L2Cache_Controller.Unblock        4312189      0.00%      0.00%
system.ruby.L2Cache_Controller.Exclusive_Unblock      1134766      0.00%      0.00%
system.ruby.L2Cache_Controller.DmaAck              34      0.00%      0.00%
system.ruby.L2Cache_Controller.L2_Replacement        37446      0.00%      0.00%
system.ruby.L2Cache_Controller.NP.L1_GETS        29942      0.00%      0.00%
system.ruby.L2Cache_Controller.NP.L1_GETX        25315      0.00%      0.00%
system.ruby.L2Cache_Controller.ILS.L1_GETS         1987      0.00%      0.00%
system.ruby.L2Cache_Controller.ILS.L1_GETX         6571      0.00%      0.00%
system.ruby.L2Cache_Controller.ILS.L1_PUTS_only        22236      0.00%      0.00%
system.ruby.L2Cache_Controller.ILS.L1_PUTS         1525      0.00%      0.00%
system.ruby.L2Cache_Controller.ILX.L1_GETS        43697      0.00%      0.00%
system.ruby.L2Cache_Controller.ILX.L1_GETX         7831      0.00%      0.00%
system.ruby.L2Cache_Controller.ILX.L1_PUTX      1083246      0.00%      0.00%
system.ruby.L2Cache_Controller.ILX.Fwd_DMA           34      0.00%      0.00%
system.ruby.L2Cache_Controller.ILOX.L1_GETS         5480      0.00%      0.00%
system.ruby.L2Cache_Controller.ILOX.L1_GETX          105      0.00%      0.00%
system.ruby.L2Cache_Controller.ILOX.L1_PUTO          296      0.00%      0.00%
system.ruby.L2Cache_Controller.ILOX.Fwd_GETX           40      0.00%      0.00%
system.ruby.L2Cache_Controller.ILOSX.L1_GETS        17192      0.00%      0.00%
system.ruby.L2Cache_Controller.ILOSX.L1_GETX        18474      0.00%      0.00%
system.ruby.L2Cache_Controller.ILOSX.L1_PUTO          343      0.00%      0.00%
system.ruby.L2Cache_Controller.ILOSX.L1_PUTS_only         5939      0.00%      0.00%
system.ruby.L2Cache_Controller.ILOSX.L1_PUTS          993      0.00%      0.00%
system.ruby.L2Cache_Controller.S.L1_GETS      1820508      0.00%      0.00%
system.ruby.L2Cache_Controller.S.L1_GETX         2155      0.00%      0.00%
system.ruby.L2Cache_Controller.S.L2_Replacement        14791      0.00%      0.00%
system.ruby.L2Cache_Controller.OLSX.L1_GETS         1508      0.00%      0.00%
system.ruby.L2Cache_Controller.OLSX.L1_GETX          144      0.00%      0.00%
system.ruby.L2Cache_Controller.OLSX.L1_PUTS_only          195      0.00%      0.00%
system.ruby.L2Cache_Controller.OLSX.L1_PUTS         1403      0.00%      0.00%
system.ruby.L2Cache_Controller.OLSX.L2_Replacement           18      0.00%      0.00%
system.ruby.L2Cache_Controller.SLS.L1_GETS       294191      0.00%      0.00%
system.ruby.L2Cache_Controller.SLS.L1_GETX         1499      0.00%      0.00%
system.ruby.L2Cache_Controller.SLS.L1_PUTS_only      1819662      0.00%      0.00%
system.ruby.L2Cache_Controller.SLS.L1_PUTS       294054      0.00%      0.00%
system.ruby.L2Cache_Controller.SLS.L2_Replacement          489      0.00%      0.00%
system.ruby.L2Cache_Controller.M.L1_GETS       278009      0.00%      0.00%
system.ruby.L2Cache_Controller.M.L1_GETX       770101      0.00%      0.00%
system.ruby.L2Cache_Controller.M.Fwd_GETX           24      0.00%      0.00%
system.ruby.L2Cache_Controller.M.Fwd_DMA           15      0.00%      0.00%
system.ruby.L2Cache_Controller.M.L2_Replacement        22148      0.00%      0.00%
system.ruby.L2Cache_Controller.IFGX.Data_Exclusive           40      0.00%      0.00%
system.ruby.L2Cache_Controller.ILOXW.L1_WBDIRTYDATA          296      0.00%      0.00%
system.ruby.L2Cache_Controller.ILOXW.Unblock         5939      0.00%      0.00%
system.ruby.L2Cache_Controller.ILOSXW.L1_WBDIRTYDATA          343      0.00%      0.00%
system.ruby.L2Cache_Controller.ILOSXW.Unblock          993      0.00%      0.00%
system.ruby.L2Cache_Controller.SLSW.L1_GETS            1      0.00%      0.00%
system.ruby.L2Cache_Controller.SLSW.L1_PUTS            3      0.00%      0.00%
system.ruby.L2Cache_Controller.SLSW.Unblock       294054      0.00%      0.00%
system.ruby.L2Cache_Controller.ILSW.L1_WBCLEANDATA         1525      0.00%      0.00%
system.ruby.L2Cache_Controller.IW.L1_WBCLEANDATA        22236      0.00%      0.00%
system.ruby.L2Cache_Controller.SW.L1_GETS            1      0.00%      0.00%
system.ruby.L2Cache_Controller.SW.Unblock      1819662      0.00%      0.00%
system.ruby.L2Cache_Controller.OXW.Unblock          195      0.00%      0.00%
system.ruby.L2Cache_Controller.OLSXW.Unblock         1403      0.00%      0.00%
system.ruby.L2Cache_Controller.ILXW.L1_WBDIRTYDATA      1083246      0.00%      0.00%
system.ruby.L2Cache_Controller.IFLS.Unblock         1987      0.00%      0.00%
system.ruby.L2Cache_Controller.IFLOX.Unblock         5480      0.00%      0.00%
system.ruby.L2Cache_Controller.IFLOX.Exclusive_Unblock          144      0.00%      0.00%
system.ruby.L2Cache_Controller.IFLOXX.L1_GETS          206      0.00%      0.00%
system.ruby.L2Cache_Controller.IFLOXX.L1_GETX            9      0.00%      0.00%
system.ruby.L2Cache_Controller.IFLOXX.Unblock        19135      0.00%      0.00%
system.ruby.L2Cache_Controller.IFLOXX.Exclusive_Unblock        32498      0.00%      0.00%
system.ruby.L2Cache_Controller.IFLOSX.Unblock        17192      0.00%      0.00%
system.ruby.L2Cache_Controller.IFLXO.L1_GETS          111      0.00%      0.00%
system.ruby.L2Cache_Controller.IFLXO.Exclusive_Unblock        18474      0.00%      0.00%
system.ruby.L2Cache_Controller.IGS.L1_GETS          496      0.00%      0.00%
system.ruby.L2Cache_Controller.IGS.Data         29942      0.00%      0.00%
system.ruby.L2Cache_Controller.IGS.Unblock        29942      0.00%      0.00%
system.ruby.L2Cache_Controller.IGM.Data         27470      0.00%      0.00%
system.ruby.L2Cache_Controller.IGMLS.Data         8070      0.00%      0.00%
system.ruby.L2Cache_Controller.IGMO.All_Acks        35540      0.00%      0.00%
system.ruby.L2Cache_Controller.IGMO.Exclusive_Unblock        35540      0.00%      0.00%
system.ruby.L2Cache_Controller.MM.Exclusive_Unblock       770101      0.00%      0.00%
system.ruby.L2Cache_Controller.SS.L1_GETS            2      0.00%      0.00%
system.ruby.L2Cache_Controller.SS.Unblock      1820508      0.00%      0.00%
system.ruby.L2Cache_Controller.OO.L1_GETS            1      0.00%      0.00%
system.ruby.L2Cache_Controller.OO.Exclusive_Unblock       278009      0.00%      0.00%
system.ruby.L2Cache_Controller.OLSXS.Unblock         1508      0.00%      0.00%
system.ruby.L2Cache_Controller.SLSS.L1_GETS            5      0.00%      0.00%
system.ruby.L2Cache_Controller.SLSS.L1_PUTS_only            2      0.00%      0.00%
system.ruby.L2Cache_Controller.SLSS.Unblock       294191      0.00%      0.00%
system.ruby.L2Cache_Controller.MI.Writeback_Ack        22148      0.00%      0.00%
system.ruby.L2Cache_Controller.OLSI.Writeback_Ack           18      0.00%      0.00%
system.ruby.L2Cache_Controller.ILXD.DmaAck           34      0.00%      0.00%

---------- End Simulation Statistics   ----------
