
---------- Begin Simulation Statistics ----------
sim_seconds                                  0.462725                       # Number of seconds simulated
sim_ticks                                462725309500                       # Number of ticks simulated
final_tick                               52369780062001                       # Number of ticks from beginning of simulation (restored from checkpoints and never reset)
sim_freq                                 1000000000000                       # Frequency of simulated ticks
host_inst_rate                                 132413                       # Simulator instruction rate (inst/s)
host_op_rate                                   238971                       # Simulator op (including micro ops) rate (op/s)
host_tick_rate                              227923512                       # Simulator tick rate (ticks/s)
host_mem_usage                                1815256                       # Number of bytes of host memory used
host_seconds                                  2030.18                       # Real time elapsed on the host
sim_insts                                   268822445                       # Number of instructions simulated
sim_ops                                     485154200                       # Number of ops (including micro ops) simulated
system.voltage_domain.voltage                       1                       # Voltage in Volts
system.clk_domain.clock                          1000                       # Clock period in ticks
system.mem_ctrls.bytes_read::ruby.dir_cntrl0       415232                       # Number of bytes read from this memory
system.mem_ctrls.bytes_read::total             415232                       # Number of bytes read from this memory
system.mem_ctrls.bytes_written::ruby.dir_cntrl0       138560                       # Number of bytes written to this memory
system.mem_ctrls.bytes_written::total          138560                       # Number of bytes written to this memory
system.mem_ctrls.num_reads::ruby.dir_cntrl0         6488                       # Number of read requests responded to by this memory
system.mem_ctrls.num_reads::total                6488                       # Number of read requests responded to by this memory
system.mem_ctrls.num_writes::ruby.dir_cntrl0         2165                       # Number of write requests responded to by this memory
system.mem_ctrls.num_writes::total               2165                       # Number of write requests responded to by this memory
system.mem_ctrls.bw_read::ruby.dir_cntrl0       897362                       # Total read bandwidth from this memory (bytes/s)
system.mem_ctrls.bw_read::total                897362                       # Total read bandwidth from this memory (bytes/s)
system.mem_ctrls.bw_write::ruby.dir_cntrl0       299443                       # Write bandwidth from this memory (bytes/s)
system.mem_ctrls.bw_write::total               299443                       # Write bandwidth from this memory (bytes/s)
system.mem_ctrls.bw_total::ruby.dir_cntrl0      1196805                       # Total bandwidth to/from this memory (bytes/s)
system.mem_ctrls.bw_total::total              1196805                       # Total bandwidth to/from this memory (bytes/s)
system.mem_ctrls.readReqs                        6488                       # Number of read requests accepted
system.mem_ctrls.writeReqs                       2165                       # Number of write requests accepted
system.mem_ctrls.readBursts                      6488                       # Number of DRAM read bursts, including those serviced by the write queue
system.mem_ctrls.writeBursts                     2165                       # Number of DRAM write bursts, including those merged in the write queue
system.mem_ctrls.bytesReadDRAM                 414592                       # Total number of bytes read from DRAM
system.mem_ctrls.bytesReadWrQ                     640                       # Total number of bytes read from write queue
system.mem_ctrls.bytesWritten                  136832                       # Total number of bytes written to DRAM
system.mem_ctrls.bytesReadSys                  415232                       # Total read bytes from the system interface side
system.mem_ctrls.bytesWrittenSys               138560                       # Total written bytes from the system interface side
system.mem_ctrls.servicedByWrQ                     10                       # Number of DRAM read bursts serviced by the write queue
system.mem_ctrls.mergedWrBursts                     0                       # Number of DRAM write bursts merged with an existing one
system.mem_ctrls.neitherReadNorWriteReqs            0                       # Number of requests that are neither read nor write
system.mem_ctrls.perBankRdBursts::0               230                       # Per bank write bursts
system.mem_ctrls.perBankRdBursts::1               281                       # Per bank write bursts
system.mem_ctrls.perBankRdBursts::2               361                       # Per bank write bursts
system.mem_ctrls.perBankRdBursts::3               318                       # Per bank write bursts
system.mem_ctrls.perBankRdBursts::4               444                       # Per bank write bursts
system.mem_ctrls.perBankRdBursts::5               578                       # Per bank write bursts
system.mem_ctrls.perBankRdBursts::6               532                       # Per bank write bursts
system.mem_ctrls.perBankRdBursts::7               500                       # Per bank write bursts
system.mem_ctrls.perBankRdBursts::8               267                       # Per bank write bursts
system.mem_ctrls.perBankRdBursts::9               329                       # Per bank write bursts
system.mem_ctrls.perBankRdBursts::10              445                       # Per bank write bursts
system.mem_ctrls.perBankRdBursts::11              576                       # Per bank write bursts
system.mem_ctrls.perBankRdBursts::12              318                       # Per bank write bursts
system.mem_ctrls.perBankRdBursts::13              407                       # Per bank write bursts
system.mem_ctrls.perBankRdBursts::14              485                       # Per bank write bursts
system.mem_ctrls.perBankRdBursts::15              407                       # Per bank write bursts
system.mem_ctrls.perBankWrBursts::0                64                       # Per bank write bursts
system.mem_ctrls.perBankWrBursts::1               192                       # Per bank write bursts
system.mem_ctrls.perBankWrBursts::2               128                       # Per bank write bursts
system.mem_ctrls.perBankWrBursts::3               192                       # Per bank write bursts
system.mem_ctrls.perBankWrBursts::4               192                       # Per bank write bursts
system.mem_ctrls.perBankWrBursts::5               157                       # Per bank write bursts
system.mem_ctrls.perBankWrBursts::6               128                       # Per bank write bursts
system.mem_ctrls.perBankWrBursts::7               192                       # Per bank write bursts
system.mem_ctrls.perBankWrBursts::8               192                       # Per bank write bursts
system.mem_ctrls.perBankWrBursts::9               192                       # Per bank write bursts
system.mem_ctrls.perBankWrBursts::10              187                       # Per bank write bursts
system.mem_ctrls.perBankWrBursts::11              128                       # Per bank write bursts
system.mem_ctrls.perBankWrBursts::12                0                       # Per bank write bursts
system.mem_ctrls.perBankWrBursts::13                0                       # Per bank write bursts
system.mem_ctrls.perBankWrBursts::14              130                       # Per bank write bursts
system.mem_ctrls.perBankWrBursts::15               64                       # Per bank write bursts
system.mem_ctrls.numRdRetry                         0                       # Number of times read queue was full causing retry
system.mem_ctrls.numWrRetry                         0                       # Number of times write queue was full causing retry
system.mem_ctrls.totGap                  462725244500                       # Total gap between requests
system.mem_ctrls.readPktSize::0                     0                       # Read request sizes (log2)
system.mem_ctrls.readPktSize::1                     0                       # Read request sizes (log2)
system.mem_ctrls.readPktSize::2                     0                       # Read request sizes (log2)
system.mem_ctrls.readPktSize::3                     0                       # Read request sizes (log2)
system.mem_ctrls.readPktSize::4                     0                       # Read request sizes (log2)
system.mem_ctrls.readPktSize::5                     0                       # Read request sizes (log2)
system.mem_ctrls.readPktSize::6                  6488                       # Read request sizes (log2)
system.mem_ctrls.writePktSize::0                    0                       # Write request sizes (log2)
system.mem_ctrls.writePktSize::1                    0                       # Write request sizes (log2)
system.mem_ctrls.writePktSize::2                    0                       # Write request sizes (log2)
system.mem_ctrls.writePktSize::3                    0                       # Write request sizes (log2)
system.mem_ctrls.writePktSize::4                    0                       # Write request sizes (log2)
system.mem_ctrls.writePktSize::5                    0                       # Write request sizes (log2)
system.mem_ctrls.writePktSize::6                 2165                       # Write request sizes (log2)
system.mem_ctrls.rdQLenPdf::0                    6320                       # What read queue length does an incoming req see
system.mem_ctrls.rdQLenPdf::1                     158                       # What read queue length does an incoming req see
system.mem_ctrls.rdQLenPdf::2                       0                       # What read queue length does an incoming req see
system.mem_ctrls.rdQLenPdf::3                       0                       # What read queue length does an incoming req see
system.mem_ctrls.rdQLenPdf::4                       0                       # What read queue length does an incoming req see
system.mem_ctrls.rdQLenPdf::5                       0                       # What read queue length does an incoming req see
system.mem_ctrls.rdQLenPdf::6                       0                       # What read queue length does an incoming req see
system.mem_ctrls.rdQLenPdf::7                       0                       # What read queue length does an incoming req see
system.mem_ctrls.rdQLenPdf::8                       0                       # What read queue length does an incoming req see
system.mem_ctrls.rdQLenPdf::9                       0                       # What read queue length does an incoming req see
system.mem_ctrls.rdQLenPdf::10                      0                       # What read queue length does an incoming req see
system.mem_ctrls.rdQLenPdf::11                      0                       # What read queue length does an incoming req see
system.mem_ctrls.rdQLenPdf::12                      0                       # What read queue length does an incoming req see
system.mem_ctrls.rdQLenPdf::13                      0                       # What read queue length does an incoming req see
system.mem_ctrls.rdQLenPdf::14                      0                       # What read queue length does an incoming req see
system.mem_ctrls.rdQLenPdf::15                      0                       # What read queue length does an incoming req see
system.mem_ctrls.rdQLenPdf::16                      0                       # What read queue length does an incoming req see
system.mem_ctrls.rdQLenPdf::17                      0                       # What read queue length does an incoming req see
system.mem_ctrls.rdQLenPdf::18                      0                       # What read queue length does an incoming req see
system.mem_ctrls.rdQLenPdf::19                      0                       # What read queue length does an incoming req see
system.mem_ctrls.rdQLenPdf::20                      0                       # What read queue length does an incoming req see
system.mem_ctrls.rdQLenPdf::21                      0                       # What read queue length does an incoming req see
system.mem_ctrls.rdQLenPdf::22                      0                       # What read queue length does an incoming req see
system.mem_ctrls.rdQLenPdf::23                      0                       # What read queue length does an incoming req see
system.mem_ctrls.rdQLenPdf::24                      0                       # What read queue length does an incoming req see
system.mem_ctrls.rdQLenPdf::25                      0                       # What read queue length does an incoming req see
system.mem_ctrls.rdQLenPdf::26                      0                       # What read queue length does an incoming req see
system.mem_ctrls.rdQLenPdf::27                      0                       # What read queue length does an incoming req see
system.mem_ctrls.rdQLenPdf::28                      0                       # What read queue length does an incoming req see
system.mem_ctrls.rdQLenPdf::29                      0                       # What read queue length does an incoming req see
system.mem_ctrls.rdQLenPdf::30                      0                       # What read queue length does an incoming req see
system.mem_ctrls.rdQLenPdf::31                      0                       # What read queue length does an incoming req see
system.mem_ctrls.wrQLenPdf::0                       1                       # What write queue length does an incoming req see
system.mem_ctrls.wrQLenPdf::1                       1                       # What write queue length does an incoming req see
system.mem_ctrls.wrQLenPdf::2                       1                       # What write queue length does an incoming req see
system.mem_ctrls.wrQLenPdf::3                       1                       # What write queue length does an incoming req see
system.mem_ctrls.wrQLenPdf::4                       1                       # What write queue length does an incoming req see
system.mem_ctrls.wrQLenPdf::5                       1                       # What write queue length does an incoming req see
system.mem_ctrls.wrQLenPdf::6                       1                       # What write queue length does an incoming req see
system.mem_ctrls.wrQLenPdf::7                       1                       # What write queue length does an incoming req see
system.mem_ctrls.wrQLenPdf::8                       1                       # What write queue length does an incoming req see
system.mem_ctrls.wrQLenPdf::9                       1                       # What write queue length does an incoming req see
system.mem_ctrls.wrQLenPdf::10                      1                       # What write queue length does an incoming req see
system.mem_ctrls.wrQLenPdf::11                      1                       # What write queue length does an incoming req see
system.mem_ctrls.wrQLenPdf::12                      1                       # What write queue length does an incoming req see
system.mem_ctrls.wrQLenPdf::13                      1                       # What write queue length does an incoming req see
system.mem_ctrls.wrQLenPdf::14                      1                       # What write queue length does an incoming req see
system.mem_ctrls.wrQLenPdf::15                    102                       # What write queue length does an incoming req see
system.mem_ctrls.wrQLenPdf::16                    112                       # What write queue length does an incoming req see
system.mem_ctrls.wrQLenPdf::17                    130                       # What write queue length does an incoming req see
system.mem_ctrls.wrQLenPdf::18                    125                       # What write queue length does an incoming req see
system.mem_ctrls.wrQLenPdf::19                    122                       # What write queue length does an incoming req see
system.mem_ctrls.wrQLenPdf::20                    174                       # What write queue length does an incoming req see
system.mem_ctrls.wrQLenPdf::21                    126                       # What write queue length does an incoming req see
system.mem_ctrls.wrQLenPdf::22                    125                       # What write queue length does an incoming req see
system.mem_ctrls.wrQLenPdf::23                    124                       # What write queue length does an incoming req see
system.mem_ctrls.wrQLenPdf::24                    114                       # What write queue length does an incoming req see
system.mem_ctrls.wrQLenPdf::25                    119                       # What write queue length does an incoming req see
system.mem_ctrls.wrQLenPdf::26                    124                       # What write queue length does an incoming req see
system.mem_ctrls.wrQLenPdf::27                    107                       # What write queue length does an incoming req see
system.mem_ctrls.wrQLenPdf::28                    108                       # What write queue length does an incoming req see
system.mem_ctrls.wrQLenPdf::29                    105                       # What write queue length does an incoming req see
system.mem_ctrls.wrQLenPdf::30                    110                       # What write queue length does an incoming req see
system.mem_ctrls.wrQLenPdf::31                    106                       # What write queue length does an incoming req see
system.mem_ctrls.wrQLenPdf::32                    103                       # What write queue length does an incoming req see
system.mem_ctrls.wrQLenPdf::33                      5                       # What write queue length does an incoming req see
system.mem_ctrls.wrQLenPdf::34                      4                       # What write queue length does an incoming req see
system.mem_ctrls.wrQLenPdf::35                      3                       # What write queue length does an incoming req see
system.mem_ctrls.wrQLenPdf::36                      1                       # What write queue length does an incoming req see
system.mem_ctrls.wrQLenPdf::37                      1                       # What write queue length does an incoming req see
system.mem_ctrls.wrQLenPdf::38                      0                       # What write queue length does an incoming req see
system.mem_ctrls.wrQLenPdf::39                      0                       # What write queue length does an incoming req see
system.mem_ctrls.wrQLenPdf::40                      0                       # What write queue length does an incoming req see
system.mem_ctrls.wrQLenPdf::41                      0                       # What write queue length does an incoming req see
system.mem_ctrls.wrQLenPdf::42                      0                       # What write queue length does an incoming req see
system.mem_ctrls.wrQLenPdf::43                      0                       # What write queue length does an incoming req see
system.mem_ctrls.wrQLenPdf::44                      0                       # What write queue length does an incoming req see
system.mem_ctrls.wrQLenPdf::45                      0                       # What write queue length does an incoming req see
system.mem_ctrls.wrQLenPdf::46                      0                       # What write queue length does an incoming req see
system.mem_ctrls.wrQLenPdf::47                      0                       # What write queue length does an incoming req see
system.mem_ctrls.wrQLenPdf::48                      0                       # What write queue length does an incoming req see
system.mem_ctrls.wrQLenPdf::49                      0                       # What write queue length does an incoming req see
system.mem_ctrls.wrQLenPdf::50                      0                       # What write queue length does an incoming req see
system.mem_ctrls.wrQLenPdf::51                      0                       # What write queue length does an incoming req see
system.mem_ctrls.wrQLenPdf::52                      0                       # What write queue length does an incoming req see
system.mem_ctrls.wrQLenPdf::53                      0                       # What write queue length does an incoming req see
system.mem_ctrls.wrQLenPdf::54                      0                       # What write queue length does an incoming req see
system.mem_ctrls.wrQLenPdf::55                      0                       # What write queue length does an incoming req see
system.mem_ctrls.wrQLenPdf::56                      0                       # What write queue length does an incoming req see
system.mem_ctrls.wrQLenPdf::57                      0                       # What write queue length does an incoming req see
system.mem_ctrls.wrQLenPdf::58                      0                       # What write queue length does an incoming req see
system.mem_ctrls.wrQLenPdf::59                      0                       # What write queue length does an incoming req see
system.mem_ctrls.wrQLenPdf::60                      0                       # What write queue length does an incoming req see
system.mem_ctrls.wrQLenPdf::61                      0                       # What write queue length does an incoming req see
system.mem_ctrls.wrQLenPdf::62                      0                       # What write queue length does an incoming req see
system.mem_ctrls.wrQLenPdf::63                      0                       # What write queue length does an incoming req see
system.mem_ctrls.bytesPerActivate::samples         2838                       # Bytes accessed per row activation
system.mem_ctrls.bytesPerActivate::mean    194.345314                       # Bytes accessed per row activation
system.mem_ctrls.bytesPerActivate::gmean   118.112235                       # Bytes accessed per row activation
system.mem_ctrls.bytesPerActivate::stdev   264.570498                       # Bytes accessed per row activation
system.mem_ctrls.bytesPerActivate::0-127         1513     53.31%     53.31% # Bytes accessed per row activation
system.mem_ctrls.bytesPerActivate::128-255          818     28.82%     82.14% # Bytes accessed per row activation
system.mem_ctrls.bytesPerActivate::256-383          131      4.62%     86.75% # Bytes accessed per row activation
system.mem_ctrls.bytesPerActivate::384-511           72      2.54%     89.29% # Bytes accessed per row activation
system.mem_ctrls.bytesPerActivate::512-639           35      1.23%     90.52% # Bytes accessed per row activation
system.mem_ctrls.bytesPerActivate::640-767           35      1.23%     91.75% # Bytes accessed per row activation
system.mem_ctrls.bytesPerActivate::768-895           14      0.49%     92.25% # Bytes accessed per row activation
system.mem_ctrls.bytesPerActivate::896-1023           22      0.78%     93.02% # Bytes accessed per row activation
system.mem_ctrls.bytesPerActivate::1024-1151          198      6.98%    100.00% # Bytes accessed per row activation
system.mem_ctrls.bytesPerActivate::total         2838                       # Bytes accessed per row activation
system.mem_ctrls.rdPerTurnAround::samples          103                       # Reads before turning the bus around for writes
system.mem_ctrls.rdPerTurnAround::mean     191.572816                       # Reads before turning the bus around for writes
system.mem_ctrls.rdPerTurnAround::stdev   1628.650871                       # Reads before turning the bus around for writes
system.mem_ctrls.rdPerTurnAround::0-511           101     98.06%     98.06% # Reads before turning the bus around for writes
system.mem_ctrls.rdPerTurnAround::2560-3071            1      0.97%     99.03% # Reads before turning the bus around for writes
system.mem_ctrls.rdPerTurnAround::15872-16383            1      0.97%    100.00% # Reads before turning the bus around for writes
system.mem_ctrls.rdPerTurnAround::total           103                       # Reads before turning the bus around for writes
system.mem_ctrls.wrPerTurnAround::samples          103                       # Writes before turning the bus around for reads
system.mem_ctrls.wrPerTurnAround::mean      20.757282                       # Writes before turning the bus around for reads
system.mem_ctrls.wrPerTurnAround::gmean     20.671258                       # Writes before turning the bus around for reads
system.mem_ctrls.wrPerTurnAround::stdev      1.957720                       # Writes before turning the bus around for reads
system.mem_ctrls.wrPerTurnAround::16                2      1.94%      1.94% # Writes before turning the bus around for reads
system.mem_ctrls.wrPerTurnAround::18                3      2.91%      4.85% # Writes before turning the bus around for reads
system.mem_ctrls.wrPerTurnAround::19               24     23.30%     28.16% # Writes before turning the bus around for reads
system.mem_ctrls.wrPerTurnAround::20               11     10.68%     38.83% # Writes before turning the bus around for reads
system.mem_ctrls.wrPerTurnAround::21               40     38.83%     77.67% # Writes before turning the bus around for reads
system.mem_ctrls.wrPerTurnAround::22                9      8.74%     86.41% # Writes before turning the bus around for reads
system.mem_ctrls.wrPerTurnAround::23               10      9.71%     96.12% # Writes before turning the bus around for reads
system.mem_ctrls.wrPerTurnAround::24                1      0.97%     97.09% # Writes before turning the bus around for reads
system.mem_ctrls.wrPerTurnAround::26                1      0.97%     98.06% # Writes before turning the bus around for reads
system.mem_ctrls.wrPerTurnAround::28                1      0.97%     99.03% # Writes before turning the bus around for reads
system.mem_ctrls.wrPerTurnAround::30                1      0.97%    100.00% # Writes before turning the bus around for reads
system.mem_ctrls.wrPerTurnAround::total           103                       # Writes before turning the bus around for reads
system.mem_ctrls.totQLat                     61742748                       # Total ticks spent queuing
system.mem_ctrls.totMemAccLat               183205248                       # Total ticks spent from burst creation until serviced by the DRAM
system.mem_ctrls.totBusLat                   32390000                       # Total ticks spent in databus transfers
system.mem_ctrls.avgQLat                      9531.14                       # Average queueing delay per DRAM burst
system.mem_ctrls.avgBusLat                    5000.00                       # Average bus latency per DRAM burst
system.mem_ctrls.avgMemAccLat                28281.14                       # Average memory access latency per DRAM burst
system.mem_ctrls.avgRdBW                         0.90                       # Average DRAM read bandwidth in MiByte/s
system.mem_ctrls.avgWrBW                         0.30                       # Average achieved write bandwidth in MiByte/s
system.mem_ctrls.avgRdBWSys                      0.90                       # Average system read bandwidth in MiByte/s
system.mem_ctrls.avgWrBWSys                      0.30                       # Average system write bandwidth in MiByte/s
system.mem_ctrls.peakBW                      12800.00                       # Theoretical peak bandwidth in MiByte/s
system.mem_ctrls.busUtil                         0.01                       # Data bus utilization in percentage
system.mem_ctrls.busUtilRead                     0.01                       # Data bus utilization in percentage for reads
system.mem_ctrls.busUtilWrite                    0.00                       # Data bus utilization in percentage for writes
system.mem_ctrls.avgRdQLen                       1.00                       # Average read queue length when enqueuing
system.mem_ctrls.avgWrQLen                      25.68                       # Average write queue length when enqueuing
system.mem_ctrls.readRowHits                     3798                       # Number of row buffer hits during reads
system.mem_ctrls.writeRowHits                    1980                       # Number of row buffer hits during writes
system.mem_ctrls.readRowHitRate                 58.63                       # Row buffer hit rate for reads
system.mem_ctrls.writeRowHitRate                91.45                       # Row buffer hit rate for writes
system.mem_ctrls.avgGap                   53475701.43                       # Average gap between requests
system.mem_ctrls.pageHitRate                    66.85                       # Row buffer hit rate, read and write combined
system.mem_ctrls_0.actEnergy                 27208440                       # Energy for activate commands per rank (pJ)
system.mem_ctrls_0.preEnergy                 14845875                       # Energy for precharge commands per rank (pJ)
system.mem_ctrls_0.readEnergy                89278800                       # Energy for read commands per rank (pJ)
system.mem_ctrls_0.writeEnergy                8067600                       # Energy for write commands per rank (pJ)
system.mem_ctrls_0.refreshEnergy          30435790320                       # Energy for refresh commands per rank (pJ)
system.mem_ctrls_0.actBackEnergy          12706868070                       # Energy for active background per rank (pJ)
system.mem_ctrls_0.preBackEnergy         268443994500                       # Energy for precharge background per rank (pJ)
system.mem_ctrls_0.totalEnergy           311726053605                       # Total energy per rank (pJ)
system.mem_ctrls_0.averagePower            668.963070                       # Core power per rank (mW)
system.mem_ctrls_0.memoryStateTime::IDLE 445284034500                       # Time in different power states
system.mem_ctrls_0.memoryStateTime::REF   15451280000                       # Time in different power states
system.mem_ctrls_0.memoryStateTime::PRE_PDN            0                       # Time in different power states
system.mem_ctrls_0.memoryStateTime::ACT    1990086000                       # Time in different power states
system.mem_ctrls_0.memoryStateTime::ACT_PDN            0                       # Time in different power states
system.mem_ctrls_1.actEnergy                 22264200                       # Energy for activate commands per rank (pJ)
system.mem_ctrls_1.preEnergy                 12148125                       # Energy for precharge commands per rank (pJ)
system.mem_ctrls_1.readEnergy                79014000                       # Energy for read commands per rank (pJ)
system.mem_ctrls_1.writeEnergy                5786640                       # Energy for write commands per rank (pJ)
system.mem_ctrls_1.refreshEnergy          30435790320                       # Energy for refresh commands per rank (pJ)
system.mem_ctrls_1.actBackEnergy          12577168845                       # Energy for active background per rank (pJ)
system.mem_ctrls_1.preBackEnergy         268557765750                       # Energy for precharge background per rank (pJ)
system.mem_ctrls_1.totalEnergy           311689937880                       # Total energy per rank (pJ)
system.mem_ctrls_1.averagePower            668.885565                       # Core power per rank (mW)
system.mem_ctrls_1.memoryStateTime::IDLE 445384418000                       # Time in different power states
system.mem_ctrls_1.memoryStateTime::REF   15451280000                       # Time in different power states
system.mem_ctrls_1.memoryStateTime::PRE_PDN            0                       # Time in different power states
system.mem_ctrls_1.memoryStateTime::ACT    1885553250                       # Time in different power states
system.mem_ctrls_1.memoryStateTime::ACT_PDN            0                       # Time in different power states
system.cpu_voltage_domain.voltage                   1                       # Voltage in Volts
system.cpu_clk_domain.clock                       500                       # Clock period in ticks
system.cpu0.apic_clk_domain.clock                8000                       # Clock period in ticks
system.cpu0.numCycles                       928764515                       # number of cpu cycles simulated
system.cpu0.numWorkItemsStarted                     0                       # number of work items this cpu started
system.cpu0.numWorkItemsCompleted                   0                       # number of work items this cpu completed
system.cpu0.kern.inst.arm                           0                       # number of arm instructions executed
system.cpu0.kern.inst.quiesce                       0                       # number of quiesce instructions executed
system.cpu0.committedInsts                     398018                       # Number of instructions committed
system.cpu0.committedOps                       840203                       # Number of ops (including micro ops) committed
system.cpu0.num_int_alu_accesses               825177                       # Number of integer alu accesses
system.cpu0.num_fp_alu_accesses                   387                       # Number of float alu accesses
system.cpu0.num_func_calls                      24759                       # number of times a function call or return occured
system.cpu0.num_conditional_control_insts        55285                       # number of instructions that are conditional controls
system.cpu0.num_int_insts                      825177                       # number of integer instructions
system.cpu0.num_fp_insts                          387                       # number of float instructions
system.cpu0.num_int_register_reads            1667905                       # number of times the integer registers were read
system.cpu0.num_int_register_writes            673922                       # number of times the integer registers were written
system.cpu0.num_fp_register_reads                 622                       # number of times the floating registers were read
system.cpu0.num_fp_register_writes                354                       # number of times the floating registers were written
system.cpu0.num_cc_register_reads              443624                       # number of times the CC registers were read
system.cpu0.num_cc_register_writes             257330                       # number of times the CC registers were written
system.cpu0.num_mem_refs                       200404                       # number of memory refs
system.cpu0.num_load_insts                     122640                       # Number of load instructions
system.cpu0.num_store_insts                     77764                       # Number of store instructions
system.cpu0.num_idle_cycles              926984954.406777                       # Number of idle cycles
system.cpu0.num_busy_cycles              1779560.593223                       # Number of busy cycles
system.cpu0.not_idle_fraction                0.001916                       # Percentage of non-idle cycles
system.cpu0.idle_fraction                    0.998084                       # Percentage of idle cycles
system.cpu0.Branches                            87541                       # Number of branches fetched
system.cpu0.op_class::No_OpClass                 9662      1.15%      1.15% # Class of executed instruction
system.cpu0.op_class::IntAlu                   625770     74.48%     75.63% # Class of executed instruction
system.cpu0.op_class::IntMult                    1673      0.20%     75.83% # Class of executed instruction
system.cpu0.op_class::IntDiv                     2478      0.29%     76.12% # Class of executed instruction
system.cpu0.op_class::FloatAdd                    239      0.03%     76.15% # Class of executed instruction
system.cpu0.op_class::FloatCmp                      0      0.00%     76.15% # Class of executed instruction
system.cpu0.op_class::FloatCvt                      0      0.00%     76.15% # Class of executed instruction
system.cpu0.op_class::FloatMult                     0      0.00%     76.15% # Class of executed instruction
system.cpu0.op_class::FloatDiv                      0      0.00%     76.15% # Class of executed instruction
system.cpu0.op_class::FloatSqrt                     0      0.00%     76.15% # Class of executed instruction
system.cpu0.op_class::SimdAdd                       0      0.00%     76.15% # Class of executed instruction
system.cpu0.op_class::SimdAddAcc                    0      0.00%     76.15% # Class of executed instruction
system.cpu0.op_class::SimdAlu                       0      0.00%     76.15% # Class of executed instruction
system.cpu0.op_class::SimdCmp                       0      0.00%     76.15% # Class of executed instruction
system.cpu0.op_class::SimdCvt                       0      0.00%     76.15% # Class of executed instruction
system.cpu0.op_class::SimdMisc                      0      0.00%     76.15% # Class of executed instruction
system.cpu0.op_class::SimdMult                      0      0.00%     76.15% # Class of executed instruction
system.cpu0.op_class::SimdMultAcc                   0      0.00%     76.15% # Class of executed instruction
system.cpu0.op_class::SimdShift                     0      0.00%     76.15% # Class of executed instruction
system.cpu0.op_class::SimdShiftAcc                  0      0.00%     76.15% # Class of executed instruction
system.cpu0.op_class::SimdSqrt                      0      0.00%     76.15% # Class of executed instruction
system.cpu0.op_class::SimdFloatAdd                  0      0.00%     76.15% # Class of executed instruction
system.cpu0.op_class::SimdFloatAlu                  0      0.00%     76.15% # Class of executed instruction
system.cpu0.op_class::SimdFloatCmp                  0      0.00%     76.15% # Class of executed instruction
system.cpu0.op_class::SimdFloatCvt                  0      0.00%     76.15% # Class of executed instruction
system.cpu0.op_class::SimdFloatDiv                  0      0.00%     76.15% # Class of executed instruction
system.cpu0.op_class::SimdFloatMisc                 0      0.00%     76.15% # Class of executed instruction
system.cpu0.op_class::SimdFloatMult                 0      0.00%     76.15% # Class of executed instruction
system.cpu0.op_class::SimdFloatMultAcc              0      0.00%     76.15% # Class of executed instruction
system.cpu0.op_class::SimdFloatSqrt                 0      0.00%     76.15% # Class of executed instruction
system.cpu0.op_class::MemRead                  122640     14.60%     90.74% # Class of executed instruction
system.cpu0.op_class::MemWrite                  77764      9.26%    100.00% # Class of executed instruction
system.cpu0.op_class::IprAccess                     0      0.00%    100.00% # Class of executed instruction
system.cpu0.op_class::InstPrefetch                  0      0.00%    100.00% # Class of executed instruction
system.cpu0.op_class::total                    840226                       # Class of executed instruction
system.cpu1.apic_clk_domain.clock                8000                       # Clock period in ticks
system.cpu1.numCycles                       927413687                       # number of cpu cycles simulated
system.cpu1.numWorkItemsStarted                     0                       # number of work items this cpu started
system.cpu1.numWorkItemsCompleted                   0                       # number of work items this cpu completed
system.cpu1.kern.inst.arm                           0                       # number of arm instructions executed
system.cpu1.kern.inst.quiesce                       0                       # number of quiesce instructions executed
system.cpu1.committedInsts                  265725098                       # Number of instructions committed
system.cpu1.committedOps                    479147970                       # Number of ops (including micro ops) committed
system.cpu1.num_int_alu_accesses            269520389                       # Number of integer alu accesses
system.cpu1.num_fp_alu_accesses             270602519                       # Number of float alu accesses
system.cpu1.num_func_calls                    9864004                       # number of times a function call or return occured
system.cpu1.num_conditional_control_insts     14995452                       # number of instructions that are conditional controls
system.cpu1.num_int_insts                   269520389                       # number of integer instructions
system.cpu1.num_fp_insts                    270602519                       # number of float instructions
system.cpu1.num_int_register_reads          512450055                       # number of times the integer registers were read
system.cpu1.num_int_register_writes         176029434                       # number of times the integer registers were written
system.cpu1.num_fp_register_reads           446698678                       # number of times the floating registers were read
system.cpu1.num_fp_register_writes          249457043                       # number of times the floating registers were written
system.cpu1.num_cc_register_reads           106880731                       # number of times the CC registers were read
system.cpu1.num_cc_register_writes           82954830                       # number of times the CC registers were written
system.cpu1.num_mem_refs                     84016834                       # number of memory refs
system.cpu1.num_load_insts                   62863328                       # Number of load instructions
system.cpu1.num_store_insts                  21153506                       # Number of store instructions
system.cpu1.num_idle_cycles              3549561.400427                       # Number of idle cycles
system.cpu1.num_busy_cycles              923864125.599573                       # Number of busy cycles
system.cpu1.not_idle_fraction                0.996173                       # Percentage of non-idle cycles
system.cpu1.idle_fraction                    0.003827                       # Percentage of idle cycles
system.cpu1.Branches                         27042661                       # Number of branches fetched
system.cpu1.op_class::No_OpClass                10594      0.00%      0.00% # Class of executed instruction
system.cpu1.op_class::IntAlu                244748600     51.08%     51.08% # Class of executed instruction
system.cpu1.op_class::IntMult                    2380      0.00%     51.08% # Class of executed instruction
system.cpu1.op_class::IntDiv                     1737      0.00%     51.08% # Class of executed instruction
system.cpu1.op_class::FloatAdd              150367922     31.38%     82.47% # Class of executed instruction
system.cpu1.op_class::FloatCmp                      0      0.00%     82.47% # Class of executed instruction
system.cpu1.op_class::FloatCvt                      0      0.00%     82.47% # Class of executed instruction
system.cpu1.op_class::FloatMult                     0      0.00%     82.47% # Class of executed instruction
system.cpu1.op_class::FloatDiv                      0      0.00%     82.47% # Class of executed instruction
system.cpu1.op_class::FloatSqrt                     0      0.00%     82.47% # Class of executed instruction
system.cpu1.op_class::SimdAdd                       0      0.00%     82.47% # Class of executed instruction
system.cpu1.op_class::SimdAddAcc                    0      0.00%     82.47% # Class of executed instruction
system.cpu1.op_class::SimdAlu                       0      0.00%     82.47% # Class of executed instruction
system.cpu1.op_class::SimdCmp                       0      0.00%     82.47% # Class of executed instruction
system.cpu1.op_class::SimdCvt                       0      0.00%     82.47% # Class of executed instruction
system.cpu1.op_class::SimdMisc                      0      0.00%     82.47% # Class of executed instruction
system.cpu1.op_class::SimdMult                      0      0.00%     82.47% # Class of executed instruction
system.cpu1.op_class::SimdMultAcc                   0      0.00%     82.47% # Class of executed instruction
system.cpu1.op_class::SimdShift                     0      0.00%     82.47% # Class of executed instruction
system.cpu1.op_class::SimdShiftAcc                  0      0.00%     82.47% # Class of executed instruction
system.cpu1.op_class::SimdSqrt                      0      0.00%     82.47% # Class of executed instruction
system.cpu1.op_class::SimdFloatAdd                  0      0.00%     82.47% # Class of executed instruction
system.cpu1.op_class::SimdFloatAlu                  0      0.00%     82.47% # Class of executed instruction
system.cpu1.op_class::SimdFloatCmp                  0      0.00%     82.47% # Class of executed instruction
system.cpu1.op_class::SimdFloatCvt                  0      0.00%     82.47% # Class of executed instruction
system.cpu1.op_class::SimdFloatDiv                  0      0.00%     82.47% # Class of executed instruction
system.cpu1.op_class::SimdFloatMisc                 0      0.00%     82.47% # Class of executed instruction
system.cpu1.op_class::SimdFloatMult                 0      0.00%     82.47% # Class of executed instruction
system.cpu1.op_class::SimdFloatMultAcc              0      0.00%     82.47% # Class of executed instruction
system.cpu1.op_class::SimdFloatSqrt                 0      0.00%     82.47% # Class of executed instruction
system.cpu1.op_class::MemRead                62863328     13.12%     95.59% # Class of executed instruction
system.cpu1.op_class::MemWrite               21153506      4.41%    100.00% # Class of executed instruction
system.cpu1.op_class::IprAccess                     0      0.00%    100.00% # Class of executed instruction
system.cpu1.op_class::InstPrefetch                  0      0.00%    100.00% # Class of executed instruction
system.cpu1.op_class::total                 479148067                       # Class of executed instruction
system.cpu2.apic_clk_domain.clock                8000                       # Clock period in ticks
system.cpu2.numCycles                       923626421                       # number of cpu cycles simulated
system.cpu2.numWorkItemsStarted                     0                       # number of work items this cpu started
system.cpu2.numWorkItemsCompleted                   0                       # number of work items this cpu completed
system.cpu2.kern.inst.arm                           0                       # number of arm instructions executed
system.cpu2.kern.inst.quiesce                       0                       # number of quiesce instructions executed
system.cpu2.committedInsts                     367279                       # Number of instructions committed
system.cpu2.committedOps                       778062                       # Number of ops (including micro ops) committed
system.cpu2.num_int_alu_accesses               763046                       # Number of integer alu accesses
system.cpu2.num_fp_alu_accesses                    33                       # Number of float alu accesses
system.cpu2.num_func_calls                      21479                       # number of times a function call or return occured
system.cpu2.num_conditional_control_insts        56124                       # number of instructions that are conditional controls
system.cpu2.num_int_insts                      763046                       # number of integer instructions
system.cpu2.num_fp_insts                           33                       # number of float instructions
system.cpu2.num_int_register_reads            1539120                       # number of times the integer registers were read
system.cpu2.num_int_register_writes            627523                       # number of times the integer registers were written
system.cpu2.num_fp_register_reads                  14                       # number of times the floating registers were read
system.cpu2.num_fp_register_writes                 25                       # number of times the floating registers were written
system.cpu2.num_cc_register_reads              434865                       # number of times the CC registers were read
system.cpu2.num_cc_register_writes             233855                       # number of times the CC registers were written
system.cpu2.num_mem_refs                       183402                       # number of memory refs
system.cpu2.num_load_insts                     113503                       # Number of load instructions
system.cpu2.num_store_insts                     69899                       # Number of store instructions
system.cpu2.num_idle_cycles              921920674.916668                       # Number of idle cycles
system.cpu2.num_busy_cycles              1705746.083332                       # Number of busy cycles
system.cpu2.not_idle_fraction                0.001847                       # Percentage of non-idle cycles
system.cpu2.idle_fraction                    0.998153                       # Percentage of idle cycles
system.cpu2.Branches                            84468                       # Number of branches fetched
system.cpu2.op_class::No_OpClass                11644      1.50%      1.50% # Class of executed instruction
system.cpu2.op_class::IntAlu                   577458     74.22%     75.71% # Class of executed instruction
system.cpu2.op_class::IntMult                    1574      0.20%     75.92% # Class of executed instruction
system.cpu2.op_class::IntDiv                     3971      0.51%     76.43% # Class of executed instruction
system.cpu2.op_class::FloatAdd                     17      0.00%     76.43% # Class of executed instruction
system.cpu2.op_class::FloatCmp                      0      0.00%     76.43% # Class of executed instruction
system.cpu2.op_class::FloatCvt                      0      0.00%     76.43% # Class of executed instruction
system.cpu2.op_class::FloatMult                     0      0.00%     76.43% # Class of executed instruction
system.cpu2.op_class::FloatDiv                      0      0.00%     76.43% # Class of executed instruction
system.cpu2.op_class::FloatSqrt                     0      0.00%     76.43% # Class of executed instruction
system.cpu2.op_class::SimdAdd                       0      0.00%     76.43% # Class of executed instruction
system.cpu2.op_class::SimdAddAcc                    0      0.00%     76.43% # Class of executed instruction
system.cpu2.op_class::SimdAlu                       0      0.00%     76.43% # Class of executed instruction
system.cpu2.op_class::SimdCmp                       0      0.00%     76.43% # Class of executed instruction
system.cpu2.op_class::SimdCvt                       0      0.00%     76.43% # Class of executed instruction
system.cpu2.op_class::SimdMisc                      0      0.00%     76.43% # Class of executed instruction
system.cpu2.op_class::SimdMult                      0      0.00%     76.43% # Class of executed instruction
system.cpu2.op_class::SimdMultAcc                   0      0.00%     76.43% # Class of executed instruction
system.cpu2.op_class::SimdShift                     0      0.00%     76.43% # Class of executed instruction
system.cpu2.op_class::SimdShiftAcc                  0      0.00%     76.43% # Class of executed instruction
system.cpu2.op_class::SimdSqrt                      0      0.00%     76.43% # Class of executed instruction
system.cpu2.op_class::SimdFloatAdd                  0      0.00%     76.43% # Class of executed instruction
system.cpu2.op_class::SimdFloatAlu                  0      0.00%     76.43% # Class of executed instruction
system.cpu2.op_class::SimdFloatCmp                  0      0.00%     76.43% # Class of executed instruction
system.cpu2.op_class::SimdFloatCvt                  0      0.00%     76.43% # Class of executed instruction
system.cpu2.op_class::SimdFloatDiv                  0      0.00%     76.43% # Class of executed instruction
system.cpu2.op_class::SimdFloatMisc                 0      0.00%     76.43% # Class of executed instruction
system.cpu2.op_class::SimdFloatMult                 0      0.00%     76.43% # Class of executed instruction
system.cpu2.op_class::SimdFloatMultAcc              0      0.00%     76.43% # Class of executed instruction
system.cpu2.op_class::SimdFloatSqrt                 0      0.00%     76.43% # Class of executed instruction
system.cpu2.op_class::MemRead                  113503     14.59%     91.02% # Class of executed instruction
system.cpu2.op_class::MemWrite                  69899      8.98%    100.00% # Class of executed instruction
system.cpu2.op_class::IprAccess                     0      0.00%    100.00% # Class of executed instruction
system.cpu2.op_class::InstPrefetch                  0      0.00%    100.00% # Class of executed instruction
system.cpu2.op_class::total                    778066                       # Class of executed instruction
system.cpu3.apic_clk_domain.clock                8000                       # Clock period in ticks
system.cpu3.numCycles                       924151804                       # number of cpu cycles simulated
system.cpu3.numWorkItemsStarted                     0                       # number of work items this cpu started
system.cpu3.numWorkItemsCompleted                   0                       # number of work items this cpu completed
system.cpu3.kern.inst.arm                           0                       # number of arm instructions executed
system.cpu3.kern.inst.quiesce                       0                       # number of quiesce instructions executed
system.cpu3.committedInsts                    1007156                       # Number of instructions committed
system.cpu3.committedOps                      1949142                       # Number of ops (including micro ops) committed
system.cpu3.num_int_alu_accesses              1919359                       # Number of integer alu accesses
system.cpu3.num_fp_alu_accesses                  1778                       # Number of float alu accesses
system.cpu3.num_func_calls                      41024                       # number of times a function call or return occured
system.cpu3.num_conditional_control_insts       157813                       # number of instructions that are conditional controls
system.cpu3.num_int_insts                     1919359                       # number of integer instructions
system.cpu3.num_fp_insts                         1778                       # number of float instructions
system.cpu3.num_int_register_reads            3908589                       # number of times the integer registers were read
system.cpu3.num_int_register_writes           1562521                       # number of times the integer registers were written
system.cpu3.num_fp_register_reads                2988                       # number of times the floating registers were read
system.cpu3.num_fp_register_writes               1416                       # number of times the floating registers were written
system.cpu3.num_cc_register_reads             1116368                       # number of times the CC registers were read
system.cpu3.num_cc_register_writes             649684                       # number of times the CC registers were written
system.cpu3.num_mem_refs                       447282                       # number of memory refs
system.cpu3.num_load_insts                     274888                       # Number of load instructions
system.cpu3.num_store_insts                    172394                       # Number of store instructions
system.cpu3.num_idle_cycles              920060067.581744                       # Number of idle cycles
system.cpu3.num_busy_cycles              4091736.418256                       # Number of busy cycles
system.cpu3.not_idle_fraction                0.004428                       # Percentage of non-idle cycles
system.cpu3.idle_fraction                    0.995572                       # Percentage of idle cycles
system.cpu3.Branches                           214463                       # Number of branches fetched
system.cpu3.op_class::No_OpClass                19947      1.02%      1.02% # Class of executed instruction
system.cpu3.op_class::IntAlu                  1472390     75.54%     76.56% # Class of executed instruction
system.cpu3.op_class::IntMult                    2376      0.12%     76.68% # Class of executed instruction
system.cpu3.op_class::IntDiv                     5893      0.30%     76.98% # Class of executed instruction
system.cpu3.op_class::FloatAdd                   1344      0.07%     77.05% # Class of executed instruction
system.cpu3.op_class::FloatCmp                      0      0.00%     77.05% # Class of executed instruction
system.cpu3.op_class::FloatCvt                      0      0.00%     77.05% # Class of executed instruction
system.cpu3.op_class::FloatMult                     0      0.00%     77.05% # Class of executed instruction
system.cpu3.op_class::FloatDiv                      0      0.00%     77.05% # Class of executed instruction
system.cpu3.op_class::FloatSqrt                     0      0.00%     77.05% # Class of executed instruction
system.cpu3.op_class::SimdAdd                       0      0.00%     77.05% # Class of executed instruction
system.cpu3.op_class::SimdAddAcc                    0      0.00%     77.05% # Class of executed instruction
system.cpu3.op_class::SimdAlu                       0      0.00%     77.05% # Class of executed instruction
system.cpu3.op_class::SimdCmp                       0      0.00%     77.05% # Class of executed instruction
system.cpu3.op_class::SimdCvt                       0      0.00%     77.05% # Class of executed instruction
system.cpu3.op_class::SimdMisc                      0      0.00%     77.05% # Class of executed instruction
system.cpu3.op_class::SimdMult                      0      0.00%     77.05% # Class of executed instruction
system.cpu3.op_class::SimdMultAcc                   0      0.00%     77.05% # Class of executed instruction
system.cpu3.op_class::SimdShift                     0      0.00%     77.05% # Class of executed instruction
system.cpu3.op_class::SimdShiftAcc                  0      0.00%     77.05% # Class of executed instruction
system.cpu3.op_class::SimdSqrt                      0      0.00%     77.05% # Class of executed instruction
system.cpu3.op_class::SimdFloatAdd                  0      0.00%     77.05% # Class of executed instruction
system.cpu3.op_class::SimdFloatAlu                  0      0.00%     77.05% # Class of executed instruction
system.cpu3.op_class::SimdFloatCmp                  0      0.00%     77.05% # Class of executed instruction
system.cpu3.op_class::SimdFloatCvt                  0      0.00%     77.05% # Class of executed instruction
system.cpu3.op_class::SimdFloatDiv                  0      0.00%     77.05% # Class of executed instruction
system.cpu3.op_class::SimdFloatMisc                 0      0.00%     77.05% # Class of executed instruction
system.cpu3.op_class::SimdFloatMult                 0      0.00%     77.05% # Class of executed instruction
system.cpu3.op_class::SimdFloatMultAcc              0      0.00%     77.05% # Class of executed instruction
system.cpu3.op_class::SimdFloatSqrt                 0      0.00%     77.05% # Class of executed instruction
system.cpu3.op_class::MemRead                  274888     14.10%     91.16% # Class of executed instruction
system.cpu3.op_class::MemWrite                 172394      8.84%    100.00% # Class of executed instruction
system.cpu3.op_class::IprAccess                     0      0.00%    100.00% # Class of executed instruction
system.cpu3.op_class::InstPrefetch                  0      0.00%    100.00% # Class of executed instruction
system.cpu3.op_class::total                   1949232                       # Class of executed instruction
system.iobus.trans_dist::ReadReq                  101                       # Transaction distribution
system.iobus.trans_dist::ReadResp                 101                       # Transaction distribution
system.iobus.trans_dist::WriteReq                 567                       # Transaction distribution
system.iobus.trans_dist::WriteResp                567                       # Transaction distribution
system.iobus.trans_dist::MessageReq                18                       # Transaction distribution
system.iobus.trans_dist::MessageResp               18                       # Transaction distribution
system.iobus.pkt_count_system.pc.south_bridge.io_apic.int_master::system.ruby.l1_cntrl0.sequencer.pio-slave-port            4                       # Packet count per connected master and slave (bytes)
system.iobus.pkt_count_system.pc.south_bridge.io_apic.int_master::system.ruby.l1_cntrl1.sequencer.pio-slave-port            4                       # Packet count per connected master and slave (bytes)
system.iobus.pkt_count_system.pc.south_bridge.io_apic.int_master::system.ruby.l1_cntrl2.sequencer.pio-slave-port            4                       # Packet count per connected master and slave (bytes)
system.iobus.pkt_count_system.pc.south_bridge.io_apic.int_master::system.ruby.l1_cntrl3.sequencer.pio-slave-port            2                       # Packet count per connected master and slave (bytes)
system.iobus.pkt_count_system.pc.south_bridge.io_apic.int_master::total           14                       # Packet count per connected master and slave (bytes)
system.iobus.pkt_count_system.ruby.l1_cntrl0.sequencer.mem-master-port::system.pc.south_bridge.ide.pio           46                       # Packet count per connected master and slave (bytes)
system.iobus.pkt_count_system.ruby.l1_cntrl0.sequencer.mem-master-port::system.pc.south_bridge.io_apic.pio            8                       # Packet count per connected master and slave (bytes)
system.iobus.pkt_count_system.ruby.l1_cntrl0.sequencer.mem-master-port::system.ruby.l1_cntrl0.sequencer.pio-slave-port          248                       # Packet count per connected master and slave (bytes)
system.iobus.pkt_count_system.ruby.l1_cntrl0.sequencer.mem-master-port::system.ruby.l1_cntrl1.sequencer.pio-slave-port            2                       # Packet count per connected master and slave (bytes)
system.iobus.pkt_count_system.ruby.l1_cntrl0.sequencer.mem-master-port::total          304                       # Packet count per connected master and slave (bytes)
system.iobus.pkt_count_system.ruby.l1_cntrl1.sequencer.mem-master-port::system.pc.south_bridge.ide.pio           12                       # Packet count per connected master and slave (bytes)
system.iobus.pkt_count_system.ruby.l1_cntrl1.sequencer.mem-master-port::system.pc.south_bridge.io_apic.pio            6                       # Packet count per connected master and slave (bytes)
system.iobus.pkt_count_system.ruby.l1_cntrl1.sequencer.mem-master-port::system.pc.com_1.pio           22                       # Packet count per connected master and slave (bytes)
system.iobus.pkt_count_system.ruby.l1_cntrl1.sequencer.mem-master-port::system.ruby.l1_cntrl0.sequencer.pio-slave-port            4                       # Packet count per connected master and slave (bytes)
system.iobus.pkt_count_system.ruby.l1_cntrl1.sequencer.mem-master-port::system.ruby.l1_cntrl1.sequencer.pio-slave-port          270                       # Packet count per connected master and slave (bytes)
system.iobus.pkt_count_system.ruby.l1_cntrl1.sequencer.mem-master-port::system.ruby.l1_cntrl2.sequencer.pio-slave-port            8                       # Packet count per connected master and slave (bytes)
system.iobus.pkt_count_system.ruby.l1_cntrl1.sequencer.mem-master-port::total          322                       # Packet count per connected master and slave (bytes)
system.iobus.pkt_count_system.ruby.l1_cntrl2.sequencer.mem-master-port::system.pc.south_bridge.ide.pio           34                       # Packet count per connected master and slave (bytes)
system.iobus.pkt_count_system.ruby.l1_cntrl2.sequencer.mem-master-port::system.pc.south_bridge.io_apic.pio           14                       # Packet count per connected master and slave (bytes)
system.iobus.pkt_count_system.ruby.l1_cntrl2.sequencer.mem-master-port::system.pc.com_1.pio          162                       # Packet count per connected master and slave (bytes)
system.iobus.pkt_count_system.ruby.l1_cntrl2.sequencer.mem-master-port::system.ruby.l1_cntrl2.sequencer.pio-slave-port          252                       # Packet count per connected master and slave (bytes)
system.iobus.pkt_count_system.ruby.l1_cntrl2.sequencer.mem-master-port::system.ruby.l1_cntrl3.sequencer.pio-slave-port            2                       # Packet count per connected master and slave (bytes)
system.iobus.pkt_count_system.ruby.l1_cntrl2.sequencer.mem-master-port::total          464                       # Packet count per connected master and slave (bytes)
system.iobus.pkt_count_system.ruby.l1_cntrl3.sequencer.mem-master-port::system.pc.south_bridge.io_apic.pio            8                       # Packet count per connected master and slave (bytes)
system.iobus.pkt_count_system.ruby.l1_cntrl3.sequencer.mem-master-port::system.ruby.l1_cntrl0.sequencer.pio-slave-port            2                       # Packet count per connected master and slave (bytes)
system.iobus.pkt_count_system.ruby.l1_cntrl3.sequencer.mem-master-port::system.ruby.l1_cntrl1.sequencer.pio-slave-port            2                       # Packet count per connected master and slave (bytes)
system.iobus.pkt_count_system.ruby.l1_cntrl3.sequencer.mem-master-port::system.ruby.l1_cntrl2.sequencer.pio-slave-port            2                       # Packet count per connected master and slave (bytes)
system.iobus.pkt_count_system.ruby.l1_cntrl3.sequencer.mem-master-port::system.ruby.l1_cntrl3.sequencer.pio-slave-port          254                       # Packet count per connected master and slave (bytes)
system.iobus.pkt_count_system.ruby.l1_cntrl3.sequencer.mem-master-port::total          268                       # Packet count per connected master and slave (bytes)
system.iobus.pkt_count::total                    1372                       # Packet count per connected master and slave (bytes)
system.iobus.pkt_size_system.pc.south_bridge.io_apic.int_master::system.ruby.l1_cntrl0.sequencer.pio-slave-port            8                       # Cumulative packet size per connected master and slave (bytes)
system.iobus.pkt_size_system.pc.south_bridge.io_apic.int_master::system.ruby.l1_cntrl1.sequencer.pio-slave-port            8                       # Cumulative packet size per connected master and slave (bytes)
system.iobus.pkt_size_system.pc.south_bridge.io_apic.int_master::system.ruby.l1_cntrl2.sequencer.pio-slave-port            8                       # Cumulative packet size per connected master and slave (bytes)
system.iobus.pkt_size_system.pc.south_bridge.io_apic.int_master::system.ruby.l1_cntrl3.sequencer.pio-slave-port            4                       # Cumulative packet size per connected master and slave (bytes)
system.iobus.pkt_size_system.pc.south_bridge.io_apic.int_master::total           28                       # Cumulative packet size per connected master and slave (bytes)
system.iobus.pkt_size_system.ruby.l1_cntrl0.sequencer.mem-master-port::system.pc.south_bridge.ide.pio           26                       # Cumulative packet size per connected master and slave (bytes)
system.iobus.pkt_size_system.ruby.l1_cntrl0.sequencer.mem-master-port::system.pc.south_bridge.io_apic.pio           16                       # Cumulative packet size per connected master and slave (bytes)
system.iobus.pkt_size_system.ruby.l1_cntrl0.sequencer.mem-master-port::system.ruby.l1_cntrl0.sequencer.pio-slave-port          496                       # Cumulative packet size per connected master and slave (bytes)
system.iobus.pkt_size_system.ruby.l1_cntrl0.sequencer.mem-master-port::system.ruby.l1_cntrl1.sequencer.pio-slave-port            4                       # Cumulative packet size per connected master and slave (bytes)
system.iobus.pkt_size_system.ruby.l1_cntrl0.sequencer.mem-master-port::total          542                       # Cumulative packet size per connected master and slave (bytes)
system.iobus.pkt_size_system.ruby.l1_cntrl1.sequencer.mem-master-port::system.pc.south_bridge.ide.pio            6                       # Cumulative packet size per connected master and slave (bytes)
system.iobus.pkt_size_system.ruby.l1_cntrl1.sequencer.mem-master-port::system.pc.south_bridge.io_apic.pio           12                       # Cumulative packet size per connected master and slave (bytes)
system.iobus.pkt_size_system.ruby.l1_cntrl1.sequencer.mem-master-port::system.pc.com_1.pio           11                       # Cumulative packet size per connected master and slave (bytes)
system.iobus.pkt_size_system.ruby.l1_cntrl1.sequencer.mem-master-port::system.ruby.l1_cntrl0.sequencer.pio-slave-port            8                       # Cumulative packet size per connected master and slave (bytes)
system.iobus.pkt_size_system.ruby.l1_cntrl1.sequencer.mem-master-port::system.ruby.l1_cntrl1.sequencer.pio-slave-port          540                       # Cumulative packet size per connected master and slave (bytes)
system.iobus.pkt_size_system.ruby.l1_cntrl1.sequencer.mem-master-port::system.ruby.l1_cntrl2.sequencer.pio-slave-port           16                       # Cumulative packet size per connected master and slave (bytes)
system.iobus.pkt_size_system.ruby.l1_cntrl1.sequencer.mem-master-port::total          593                       # Cumulative packet size per connected master and slave (bytes)
system.iobus.pkt_size_system.ruby.l1_cntrl2.sequencer.mem-master-port::system.pc.south_bridge.ide.pio           20                       # Cumulative packet size per connected master and slave (bytes)
system.iobus.pkt_size_system.ruby.l1_cntrl2.sequencer.mem-master-port::system.pc.south_bridge.io_apic.pio           28                       # Cumulative packet size per connected master and slave (bytes)
system.iobus.pkt_size_system.ruby.l1_cntrl2.sequencer.mem-master-port::system.pc.com_1.pio           81                       # Cumulative packet size per connected master and slave (bytes)
system.iobus.pkt_size_system.ruby.l1_cntrl2.sequencer.mem-master-port::system.ruby.l1_cntrl2.sequencer.pio-slave-port          504                       # Cumulative packet size per connected master and slave (bytes)
system.iobus.pkt_size_system.ruby.l1_cntrl2.sequencer.mem-master-port::system.ruby.l1_cntrl3.sequencer.pio-slave-port            4                       # Cumulative packet size per connected master and slave (bytes)
system.iobus.pkt_size_system.ruby.l1_cntrl2.sequencer.mem-master-port::total          637                       # Cumulative packet size per connected master and slave (bytes)
system.iobus.pkt_size_system.ruby.l1_cntrl3.sequencer.mem-master-port::system.pc.south_bridge.io_apic.pio           16                       # Cumulative packet size per connected master and slave (bytes)
system.iobus.pkt_size_system.ruby.l1_cntrl3.sequencer.mem-master-port::system.ruby.l1_cntrl0.sequencer.pio-slave-port            4                       # Cumulative packet size per connected master and slave (bytes)
system.iobus.pkt_size_system.ruby.l1_cntrl3.sequencer.mem-master-port::system.ruby.l1_cntrl1.sequencer.pio-slave-port            4                       # Cumulative packet size per connected master and slave (bytes)
system.iobus.pkt_size_system.ruby.l1_cntrl3.sequencer.mem-master-port::system.ruby.l1_cntrl2.sequencer.pio-slave-port            4                       # Cumulative packet size per connected master and slave (bytes)
system.iobus.pkt_size_system.ruby.l1_cntrl3.sequencer.mem-master-port::system.ruby.l1_cntrl3.sequencer.pio-slave-port          508                       # Cumulative packet size per connected master and slave (bytes)
system.iobus.pkt_size_system.ruby.l1_cntrl3.sequencer.mem-master-port::total          536                       # Cumulative packet size per connected master and slave (bytes)
system.iobus.pkt_size::total                     2336                       # Cumulative packet size per connected master and slave (bytes)
system.iobus.reqLayer2.occupancy                81500                       # Layer occupancy (ticks)
system.iobus.reqLayer2.utilization                0.0                       # Layer utilization (%)
system.iobus.reqLayer8.occupancy                32496                       # Layer occupancy (ticks)
system.iobus.reqLayer8.utilization                0.0                       # Layer utilization (%)
system.iobus.reqLayer12.occupancy              119000                       # Layer occupancy (ticks)
system.iobus.reqLayer12.utilization               0.0                       # Layer utilization (%)
system.iobus.reqLayer17.occupancy              317999                       # Layer occupancy (ticks)
system.iobus.reqLayer17.utilization               0.0                       # Layer utilization (%)
system.iobus.reqLayer18.occupancy              309495                       # Layer occupancy (ticks)
system.iobus.reqLayer18.utilization               0.0                       # Layer utilization (%)
system.iobus.reqLayer19.occupancy              326998                       # Layer occupancy (ticks)
system.iobus.reqLayer19.utilization               0.0                       # Layer utilization (%)
system.iobus.reqLayer20.occupancy              314998                       # Layer occupancy (ticks)
system.iobus.reqLayer20.utilization               0.0                       # Layer utilization (%)
system.iobus.respLayer0.occupancy               10498                       # Layer occupancy (ticks)
system.iobus.respLayer0.utilization               0.0                       # Layer utilization (%)
system.iobus.respLayer2.occupancy              225000                       # Layer occupancy (ticks)
system.iobus.respLayer2.utilization               0.0                       # Layer utilization (%)
system.iobus.respLayer4.occupancy              246500                       # Layer occupancy (ticks)
system.iobus.respLayer4.utilization               0.0                       # Layer utilization (%)
system.iobus.respLayer6.occupancy              362000                       # Layer occupancy (ticks)
system.iobus.respLayer6.utilization               0.0                       # Layer utilization (%)
system.iobus.respLayer8.occupancy              202500                       # Layer occupancy (ticks)
system.iobus.respLayer8.utilization               0.0                       # Layer utilization (%)
system.pc.south_bridge.ide.disks.dma_read_full_pages            0                       # Number of full page size DMA reads (not PRD).
system.pc.south_bridge.ide.disks.dma_read_bytes            0                       # Number of bytes transfered via DMA reads (not PRD).
system.pc.south_bridge.ide.disks.dma_read_txs            0                       # Number of DMA read transactions (not PRD).
system.pc.south_bridge.ide.disks.dma_write_full_pages           33                       # Number of full page size DMA writes.
system.pc.south_bridge.ide.disks.dma_write_bytes       135168                       # Number of bytes transfered via DMA writes.
system.pc.south_bridge.ide.disks.dma_write_txs           33                       # Number of DMA write transactions.
system.ruby.clk_domain.clock                      500                       # Clock period in ticks
system.ruby.outstanding_req_hist_seqr::bucket_size            1                      
system.ruby.outstanding_req_hist_seqr::max_bucket            9                      
system.ruby.outstanding_req_hist_seqr::samples    461990400                      
system.ruby.outstanding_req_hist_seqr::mean     1.000000                      
system.ruby.outstanding_req_hist_seqr::gmean     1.000000                      
system.ruby.outstanding_req_hist_seqr::stdev     0.000666                      
system.ruby.outstanding_req_hist_seqr    |           0      0.00%      0.00% |   461990195    100.00%    100.00% |         205      0.00%    100.00% |           0      0.00%    100.00% |           0      0.00%    100.00% |           0      0.00%    100.00% |           0      0.00%    100.00% |           0      0.00%    100.00% |           0      0.00%    100.00% |           0      0.00%    100.00%
system.ruby.outstanding_req_hist_seqr::total    461990400                      
system.ruby.latency_hist_seqr::bucket_size          128                      
system.ruby.latency_hist_seqr::max_bucket         1279                      
system.ruby.latency_hist_seqr::samples      461990400                      
system.ruby.latency_hist_seqr::mean          1.011624                      
system.ruby.latency_hist_seqr::gmean         1.002299                      
system.ruby.latency_hist_seqr::stdev         0.591286                      
system.ruby.latency_hist_seqr            |   461989781    100.00%    100.00% |         543      0.00%    100.00% |           8      0.00%    100.00% |          11      0.00%    100.00% |          45      0.00%    100.00% |          12      0.00%    100.00% |           0      0.00%    100.00% |           0      0.00%    100.00% |           0      0.00%    100.00% |           0      0.00%    100.00%
system.ruby.latency_hist_seqr::total        461990400                      
system.ruby.hit_latency_hist_seqr::bucket_size            2                      
system.ruby.hit_latency_hist_seqr::max_bucket           19                      
system.ruby.hit_latency_hist_seqr::samples    461965421                      
system.ruby.hit_latency_hist_seqr::mean      1.008716                      
system.ruby.hit_latency_hist_seqr::gmean     1.002092                      
system.ruby.hit_latency_hist_seqr::stdev     0.295103                      
system.ruby.hit_latency_hist_seqr        |   461562765     99.91%     99.91% |           0      0.00%     99.91% |           0      0.00%     99.91% |           0      0.00%     99.91% |           0      0.00%     99.91% |      402656      0.09%    100.00% |           0      0.00%    100.00% |           0      0.00%    100.00% |           0      0.00%    100.00% |           0      0.00%    100.00%
system.ruby.hit_latency_hist_seqr::total    461965421                      
system.ruby.miss_latency_hist_seqr::bucket_size          128                      
system.ruby.miss_latency_hist_seqr::max_bucket         1279                      
system.ruby.miss_latency_hist_seqr::samples        24979                      
system.ruby.miss_latency_hist_seqr::mean    54.782978                      
system.ruby.miss_latency_hist_seqr::gmean    45.911236                      
system.ruby.miss_latency_hist_seqr::stdev    44.319825                      
system.ruby.miss_latency_hist_seqr       |       24360     97.52%     97.52% |         543      2.17%     99.70% |           8      0.03%     99.73% |          11      0.04%     99.77% |          45      0.18%     99.95% |          12      0.05%    100.00% |           0      0.00%    100.00% |           0      0.00%    100.00% |           0      0.00%    100.00% |           0      0.00%    100.00%
system.ruby.miss_latency_hist_seqr::total        24979                      
system.ruby.L1Cache.incomplete_times_seqr            9                      
[...]
system.ruby.L1Cache_Controller.O.L1_to_L2::total        32520                      
system.ruby.L1Cache_Controller.O.Trigger_L2_to_L1D |         930      9.27%      9.27% |        6462     64.42%     73.69% |         505      5.03%     78.73% |        2134     21.27%    100.00%
system.ruby.L1Cache_Controller.O.Trigger_L2_to_L1D::total        10031                      
system.ruby.L1Cache_Controller.O.Trigger_L2_to_L1I |        1028      4.74%      4.74% |       11569     53.31%     58.05% |        1549      7.14%     65.19% |        7554     34.81%    100.00%
system.ruby.L1Cache_Controller.O.Trigger_L2_to_L1I::total        21700                      
system.ruby.L1Cache_Controller.O.Other_GETX |        1407     26.82%     26.82% |         817     15.57%     42.39% |        1094     20.85%     63.25% |        1928     36.75%    100.00%
system.ruby.L1Cache_Controller.O.Other_GETX::total         5246                      
system.ruby.L1Cache_Controller.O.Other_GETS |        1816     12.25%     12.25% |        8731     58.89%     71.14% |         966      6.52%     77.66% |        3312     22.34%    100.00%
system.ruby.L1Cache_Controller.O.Other_GETS::total        14825                      
system.ruby.L1Cache_Controller.M.Load    |       50329      0.21%      0.21% |    23627751     98.63%     98.84% |       76561      0.32%     99.16% |      200870      0.84%    100.00%
system.ruby.L1Cache_Controller.M.Load::total     23955511                      
system.ruby.L1Cache_Controller.M.Ifetch  |       84784      0.05%      0.05% |   140354705     89.64%     89.70% |      102515      0.07%     89.76% |    16030143     10.24%    100.00%
system.ruby.L1Cache_Controller.M.Ifetch::total    156572147                      
system.ruby.L1Cache_Controller.M.Store   |        1984     17.98%     17.98% |        1407     12.75%     30.73% |        4853     43.97%     74.70% |        2792     25.30%    100.00%
system.ruby.L1Cache_Controller.M.Store::total        11036                      
system.ruby.L1Cache_Controller.M.L2_Replacement |           1      0.42%      0.42% |          26     10.97%     11.39% |         104     43.88%     55.27% |         106     44.73%    100.00%
system.ruby.L1Cache_Controller.M.L2_Replacement::total          237                      
system.ruby.L1Cache_Controller.M.L1_to_L2 |        5771      1.57%      1.57% |      301299     81.97%     83.54% |        6454      1.76%     85.29% |       54060     14.71%    100.00%
system.ruby.L1Cache_Controller.M.L1_to_L2::total       367584                      
system.ruby.L1Cache_Controller.M.Trigger_L2_to_L1D |        1759      0.56%      0.56% |      297246     94.48%     95.04% |        2704      0.86%     95.90% |       12904      4.10%    100.00%
system.ruby.L1Cache_Controller.M.Trigger_L2_to_L1D::total       314613                      
system.ruby.L1Cache_Controller.M.Trigger_L2_to_L1I |         813      2.18%      2.18% |         218      0.58%      2.76% |         500      1.34%      4.10% |       35798     95.90%    100.00%
system.ruby.L1Cache_Controller.M.Trigger_L2_to_L1I::total        37329                      
system.ruby.L1Cache_Controller.M.Other_GETX |         256     11.56%     11.56% |         269     12.14%     23.70% |         965     43.57%     67.27% |         725     32.73%    100.00%
system.ruby.L1Cache_Controller.M.Other_GETX::total         2215                      
system.ruby.L1Cache_Controller.M.Other_GETS |        3039     24.86%     24.86% |        3090     25.27%     50.13% |        2025     16.56%     66.69% |        4072     33.31%    100.00%
system.ruby.L1Cache_Controller.M.Other_GETS::total        12226                      
system.ruby.L1Cache_Controller.M.Merged_GETS |           4     10.53%     10.53% |          24     63.16%     73.68% |           3      7.89%     81.58% |           7     18.42%    100.00%
system.ruby.L1Cache_Controller.M.Merged_GETS::total           38                      
system.ruby.L1Cache_Controller.MM.Load   |      243561      0.86%      0.86% |    24388155     85.62%     86.47% |      470468      1.65%     88.12% |     3382680     11.88%    100.00%
system.ruby.L1Cache_Controller.MM.Load::total     28484864                      
system.ruby.L1Cache_Controller.MM.Store  |      275862      1.11%      1.11% |    21229235     85.55%     86.66% |      548211      2.21%     88.87% |     2762413     11.13%    100.00%
system.ruby.L1Cache_Controller.MM.Store::total     24815721                      
system.ruby.L1Cache_Controller.MM.L2_Replacement |          18      1.51%      1.51% |          25      2.09%      3.60% |         669     55.98%     59.58% |         483     40.42%    100.00%
system.ruby.L1Cache_Controller.MM.L2_Replacement::total         1195                      
system.ruby.L1Cache_Controller.MM.L1_to_L2 |       14788     10.37%     10.37% |       53672     37.64%     48.01% |       26107     18.31%     66.31% |       48040     33.69%    100.00%
system.ruby.L1Cache_Controller.MM.L1_to_L2::total       142607                      
system.ruby.L1Cache_Controller.MM.Trigger_L2_to_L1D |        7398      7.12%      7.12% |       48807     47.01%     54.13% |       13062     12.58%     66.71% |       34566     33.29%    100.00%
system.ruby.L1Cache_Controller.MM.Trigger_L2_to_L1D::total       103833                      
system.ruby.L1Cache_Controller.MM.Other_GETX |         951     10.45%     10.45% |        3324     36.52%     46.96% |         989     10.86%     57.83% |        3839     42.17%    100.00%
system.ruby.L1Cache_Controller.MM.Other_GETX::total         9103                      
system.ruby.L1Cache_Controller.MM.Other_GETS |        2330     16.69%     16.69% |        2826     20.24%     36.93% |        2568     18.39%     55.32% |        6238     44.68%    100.00%
system.ruby.L1Cache_Controller.MM.Other_GETS::total        13962                      
system.ruby.L1Cache_Controller.MM.Merged_GETS |           5      8.20%      8.20% |          29     47.54%     55.74% |           6      9.84%     65.57% |          21     34.43%    100.00%
system.ruby.L1Cache_Controller.MM.Merged_GETS::total           61                      
system.ruby.L1Cache_Controller.SR.Load   |        2798      7.29%      7.29% |       12683     33.06%     40.35% |        7997     20.84%     61.19% |       14891     38.81%    100.00%
system.ruby.L1Cache_Controller.SR.Load::total        38369                      
system.ruby.L1Cache_Controller.SR.Ifetch |       12341     15.01%     15.01% |        5151      6.26%     21.27% |       24536     29.84%     51.11% |       40199     48.89%    100.00%
system.ruby.L1Cache_Controller.SR.Ifetch::total        82227                      
system.ruby.L1Cache_Controller.SR.Store  |         118     17.15%     17.15% |         187     27.18%     44.33% |         131     19.04%     63.37% |         252     36.63%    100.00%
system.ruby.L1Cache_Controller.SR.Store::total          688                      
system.ruby.L1Cache_Controller.OR.Load   |         921      9.27%      9.27% |        6451     64.90%     74.16% |         500      5.03%     79.20% |        2068     20.80%    100.00%
system.ruby.L1Cache_Controller.OR.Load::total         9940                      
system.ruby.L1Cache_Controller.OR.Ifetch |        1028      4.74%      4.74% |       11569     53.31%     58.05% |        1549      7.14%     65.19% |        7554     34.81%    100.00%
system.ruby.L1Cache_Controller.OR.Ifetch::total        21700                      
system.ruby.L1Cache_Controller.OR.Store  |           9      9.89%      9.89% |          11     12.09%     21.98% |           5      5.49%     27.47% |          66     72.53%    100.00%
system.ruby.L1Cache_Controller.OR.Store::total           91                      
system.ruby.L1Cache_Controller.MR.Load   |        1232      0.40%      0.40% |      296972     95.24%     95.64% |        1928      0.62%     96.26% |       11674      3.74%    100.00%
system.ruby.L1Cache_Controller.MR.Load::total       311806                      
system.ruby.L1Cache_Controller.MR.Ifetch |         813      2.18%      2.18% |         218      0.58%      2.76% |         500      1.34%      4.10% |       35798     95.90%    100.00%
system.ruby.L1Cache_Controller.MR.Ifetch::total        37329                      
system.ruby.L1Cache_Controller.MR.Store  |         527     18.77%     18.77% |         274      9.76%     28.54% |         776     27.65%     56.18% |        1230     43.82%    100.00%
system.ruby.L1Cache_Controller.MR.Store::total         2807                      
system.ruby.L1Cache_Controller.MMR.Load  |        3482     10.22%     10.22% |        5937     17.43%     27.65% |        8141     23.90%     51.54% |       16508     48.46%    100.00%
system.ruby.L1Cache_Controller.MMR.Load::total        34068                      
system.ruby.L1Cache_Controller.MMR.Store |        3916      5.61%      5.61% |       42870     61.45%     67.06% |        4921      7.05%     74.12% |       18058     25.88%    100.00%
system.ruby.L1Cache_Controller.MMR.Store::total        69765                      
system.ruby.L1Cache_Controller.IM.Ack    |       11619     20.91%     20.91% |        6145     11.06%     31.97% |       12020     21.63%     53.60% |       25783     46.40%    100.00%
system.ruby.L1Cache_Controller.IM.Ack::total        55567                      
system.ruby.L1Cache_Controller.IM.Data   |         406     29.90%     29.90% |         113      8.32%     38.22% |         686     50.52%     88.73% |         153     11.27%    100.00%
system.ruby.L1Cache_Controller.IM.Data::total         1358                      
system.ruby.L1Cache_Controller.IM.Exclusive_Data |        5374     21.58%     21.58% |        3261     13.10%     34.68% |        6435     25.84%     60.52% |        9832     39.48%    100.00%
system.ruby.L1Cache_Controller.IM.Exclusive_Data::total        24902                      
system.ruby.L1Cache_Controller.SM.Ack    |        1465     32.51%     32.51% |         623     13.83%     46.34% |        1375     30.51%     76.85% |        1043     23.15%    100.00%
system.ruby.L1Cache_Controller.SM.Ack::total         4506                      
system.ruby.L1Cache_Controller.SM.Data   |         955     24.31%     24.31% |         630     16.04%     40.35% |        1421     36.18%     76.53% |         922     23.47%    100.00%
system.ruby.L1Cache_Controller.SM.Data::total         3928                      
system.ruby.L1Cache_Controller.OM.Ack    |          87     10.18%     10.18% |         141     16.49%     26.67% |         129     15.09%     41.75% |         498     58.25%    100.00%
system.ruby.L1Cache_Controller.OM.Ack::total          855                      
system.ruby.L1Cache_Controller.OM.All_acks_no_sharers |          29     10.18%     10.18% |          47     16.49%     26.67% |          43     15.09%     41.75% |         166     58.25%    100.00%
system.ruby.L1Cache_Controller.OM.All_acks_no_sharers::total          285                      
system.ruby.L1Cache_Controller.ISM.Ack   |         582     12.78%     12.78% |         770     16.90%     29.68% |        2318     50.89%     80.57% |         885     19.43%    100.00%
system.ruby.L1Cache_Controller.ISM.Ack::total         4555                      
system.ruby.L1Cache_Controller.ISM.All_acks_no_sharers |        1361     25.75%     25.75% |         743     14.06%     39.80% |        2107     39.86%     79.66% |        1075     20.34%    100.00%
system.ruby.L1Cache_Controller.ISM.All_acks_no_sharers::total         5286                      
system.ruby.L1Cache_Controller.M_W.Load  |          32     18.50%     18.50% |          25     14.45%     32.95% |          49     28.32%     61.27% |          67     38.73%    100.00%
system.ruby.L1Cache_Controller.M_W.Load::total          173                      
system.ruby.L1Cache_Controller.M_W.Store |          13     23.21%     23.21% |           4      7.14%     30.36% |           2      3.57%     33.93% |          37     66.07%    100.00%
system.ruby.L1Cache_Controller.M_W.Store::total           56                      
system.ruby.L1Cache_Controller.M_W.Ack   |        2604     22.60%     22.60% |        1943     16.86%     39.47% |        3068     26.63%     66.10% |        3906     33.90%    100.00%
system.ruby.L1Cache_Controller.M_W.Ack::total        11521                      
system.ruby.L1Cache_Controller.M_W.All_acks_no_sharers |        6231     18.86%     18.86% |        6050     18.31%     37.17% |        9998     30.26%     67.42% |       10764     32.58%    100.00%
system.ruby.L1Cache_Controller.M_W.All_acks_no_sharers::total        33043                      
system.ruby.L1Cache_Controller.MM_W.Store |         723     23.79%     23.79% |         491     16.16%     39.95% |        1193     39.26%     79.20% |         632     20.80%    100.00%
system.ruby.L1Cache_Controller.MM_W.Store::total         3039                      
system.ruby.L1Cache_Controller.MM_W.Ack  |        2200     23.33%     23.33% |        1718     18.22%     41.56% |        3567     37.83%     79.39% |        1943     20.61%    100.00%
system.ruby.L1Cache_Controller.MM_W.Ack::total         9428                      
system.ruby.L1Cache_Controller.MM_W.All_acks_no_sharers |        5387     21.58%     21.58% |        3265     13.08%     34.67% |        6437     25.79%     60.46% |        9869     39.54%    100.00%
system.ruby.L1Cache_Controller.MM_W.All_acks_no_sharers::total        24958                      
system.ruby.L1Cache_Controller.IS.Other_GETS |           0      0.00%      0.00% |           1    100.00%    100.00% |           0      0.00%    100.00% |           0      0.00%    100.00%
system.ruby.L1Cache_Controller.IS.Other_GETS::total            1                      
system.ruby.L1Cache_Controller.IS.Ack    |       15690     16.76%     16.76% |       17578     18.77%     35.53% |       31382     33.52%     69.05% |       28979     30.95%    100.00%
system.ruby.L1Cache_Controller.IS.Ack::total        93629                      
system.ruby.L1Cache_Controller.IS.Shared_Ack |        2934     37.17%     37.17% |         495      6.27%     43.44% |        3554     45.02%     88.46% |         911     11.54%    100.00%
system.ruby.L1Cache_Controller.IS.Shared_Ack::total         7894                      
system.ruby.L1Cache_Controller.IS.Data   |          68     28.10%     28.10% |          35     14.46%     42.56% |         119     49.17%     91.74% |          20      8.26%    100.00%
system.ruby.L1Cache_Controller.IS.Data::total          242                      
system.ruby.L1Cache_Controller.IS.Shared_Data |        7392     27.22%     27.22% |        4290     15.80%     43.02% |        9970     36.72%     79.74% |        5500     20.26%    100.00%
system.ruby.L1Cache_Controller.IS.Shared_Data::total        27152                      
system.ruby.L1Cache_Controller.IS.Exclusive_Data |        6244     18.86%     18.86% |        6054     18.29%     37.16% |       10000     30.21%     67.37% |       10801     32.63%    100.00%
system.ruby.L1Cache_Controller.IS.Exclusive_Data::total        33099                      
system.ruby.L1Cache_Controller.SS.Load   |          46     13.81%     13.81% |          79     23.72%     37.54% |         165     49.55%     87.09% |          43     12.91%    100.00%
system.ruby.L1Cache_Controller.SS.Load::total          333                      
system.ruby.L1Cache_Controller.SS.Ifetch |        2731     34.06%     34.06% |         817     10.19%     44.25% |        3083     38.45%     82.70% |        1387     17.30%    100.00%
system.ruby.L1Cache_Controller.SS.Ifetch::total         8018                      
system.ruby.L1Cache_Controller.SS.Store  |           1     10.00%     10.00% |           2     20.00%     30.00% |           3     30.00%     60.00% |           4     40.00%    100.00%
system.ruby.L1Cache_Controller.SS.Store::total           10                      
system.ruby.L1Cache_Controller.SS.Ack    |        2778     18.88%     18.88% |        3630     24.67%     43.54% |        4135     28.10%     71.64% |        4173     28.36%    100.00%
system.ruby.L1Cache_Controller.SS.Ack::total        14716                      
system.ruby.L1Cache_Controller.SS.Shared_Ack |        5690     46.06%     46.06% |         499      4.04%     50.10% |        4776     38.66%     88.76% |        1388     11.24%    100.00%
system.ruby.L1Cache_Controller.SS.Shared_Ack::total        12353                      
system.ruby.L1Cache_Controller.SS.All_acks |        7457     27.23%     27.23% |        4324     15.79%     43.02% |       10086     36.83%     79.85% |        5519     20.15%    100.00%
system.ruby.L1Cache_Controller.SS.All_acks::total        27386                      
system.ruby.L1Cache_Controller.SS.All_acks_no_sharers |           3     37.50%     37.50% |           1     12.50%     50.00% |           3     37.50%     87.50% |           1     12.50%    100.00%
system.ruby.L1Cache_Controller.SS.All_acks_no_sharers::total            8                      
system.ruby.L1Cache_Controller.OI.Load   |           0      0.00%      0.00% |           0      0.00%      0.00% |           0      0.00%      0.00% |           1    100.00%    100.00%
system.ruby.L1Cache_Controller.OI.Load::total            1                      
system.ruby.L1Cache_Controller.OI.Ifetch |           0      0.00%      0.00% |           0      0.00%      0.00% |           1    100.00%    100.00% |           0      0.00%    100.00%
system.ruby.L1Cache_Controller.OI.Ifetch::total            1                      
system.ruby.L1Cache_Controller.OI.Writeback_Ack |           9      2.72%      2.72% |          78     23.56%     26.28% |         130     39.27%     65.56% |         114     34.44%    100.00%
system.ruby.L1Cache_Controller.OI.Writeback_Ack::total          331                      
system.ruby.L1Cache_Controller.MI.Load   |           0      0.00%      0.00% |           0      0.00%      0.00% |           1    100.00%    100.00% |           0      0.00%    100.00%
system.ruby.L1Cache_Controller.MI.Load::total            1                      
system.ruby.L1Cache_Controller.MI.Store  |           0      0.00%      0.00% |           0      0.00%      0.00% |           1    100.00%    100.00% |           0      0.00%    100.00%
system.ruby.L1Cache_Controller.MI.Store::total            1                      
system.ruby.L1Cache_Controller.MI.Writeback_Ack |          19      1.33%      1.33% |          51      3.56%      4.89% |         773     53.98%     58.87% |         589     41.13%    100.00%
system.ruby.L1Cache_Controller.MI.Writeback_Ack::total         1432                      
system.ruby.L1Cache_Controller.ST.Complete_L2_to_L1 |       15257     12.58%     12.58% |       18021     14.86%     27.44% |       32664     26.93%     54.37% |       55342     45.63%    100.00%
system.ruby.L1Cache_Controller.ST.Complete_L2_to_L1::total       121284                      
system.ruby.L1Cache_Controller.OT.Complete_L2_to_L1 |        1958      6.17%      6.17% |       18031     56.82%     63.00% |        2054      6.47%     69.47% |        9688     30.53%    100.00%
system.ruby.L1Cache_Controller.OT.Complete_L2_to_L1::total        31731                      
system.ruby.L1Cache_Controller.MT.Complete_L2_to_L1 |        2572      0.73%      0.73% |      297464     84.52%     85.25% |        3204      0.91%     86.16% |       48702     13.84%    100.00%
system.ruby.L1Cache_Controller.MT.Complete_L2_to_L1::total       351942                      
system.ruby.L1Cache_Controller.MMT.Complete_L2_to_L1 |        7398      7.12%      7.12% |       48807     47.01%     54.13% |       13062     12.58%     66.71% |       34566     33.29%    100.00%
system.ruby.L1Cache_Controller.MMT.Complete_L2_to_L1::total       103833                      

---------- End Simulation Statistics   ----------
