
---------- Begin Simulation Statistics ----------
sim_seconds                                  4.060422                       # Number of seconds simulated
sim_ticks                                4060421839500                       # Number of ticks simulated
final_tick                               56502873675001                       # Number of ticks from beginning of simulation (restored from checkpoints and never reset)
sim_freq                                 1000000000000                       # Frequency of simulated ticks
host_inst_rate                                 152376                       # Simulator instruction rate (inst/s)
host_op_rate                                   259550                       # Simulator op (including micro ops) rate (op/s)
host_tick_rate                              305978607                       # Simulator tick rate (ticks/s)
host_mem_usage                                1881776                       # Number of bytes of host memory used
host_seconds                                 13270.28                       # Real time elapsed on the host
sim_insts                                  2022074137                       # Number of instructions simulated
sim_ops                                    3444298208                       # Number of ops (including micro ops) simulated
system.voltage_domain.voltage                       1                       # Voltage in Volts
system.clk_domain.clock                          1000                       # Clock period in ticks
system.mem_ctrls.bytes_read::ruby.dir_cntrl0    527243392                       # Number of bytes read from this memory
system.mem_ctrls.bytes_read::total          527243392                       # Number of bytes read from this memory
system.mem_ctrls.bytes_written::ruby.dir_cntrl0    527417472                       # Number of bytes written to this memory
system.mem_ctrls.bytes_written::total       527417472                       # Number of bytes written to this memory
system.mem_ctrls.num_reads::ruby.dir_cntrl0      8238178                       # Number of read requests responded to by this memory
system.mem_ctrls.num_reads::total             8238178                       # Number of read requests responded to by this memory
system.mem_ctrls.num_writes::ruby.dir_cntrl0      8240898                       # Number of write requests responded to by this memory
system.mem_ctrls.num_writes::total            8240898                       # Number of write requests responded to by this memory
system.mem_ctrls.bw_read::ruby.dir_cntrl0    129849413                       # Total read bandwidth from this memory (bytes/s)
system.mem_ctrls.bw_read::total             129849413                       # Total read bandwidth from this memory (bytes/s)
system.mem_ctrls.bw_write::ruby.dir_cntrl0    129892285                       # Write bandwidth from this memory (bytes/s)
system.mem_ctrls.bw_write::total            129892285                       # Write bandwidth from this memory (bytes/s)
system.mem_ctrls.bw_total::ruby.dir_cntrl0    259741698                       # Total bandwidth to/from this memory (bytes/s)
system.mem_ctrls.bw_total::total            259741698                       # Total bandwidth to/from this memory (bytes/s)
system.mem_ctrls.readReqs                     8238178                       # Number of read requests accepted
system.mem_ctrls.writeReqs                    8240898                       # Number of write requests accepted
system.mem_ctrls.readBursts                   8238178                       # Number of DRAM read bursts, including those serviced by the write queue
system.mem_ctrls.writeBursts                  8240898                       # Number of DRAM write bursts, including those merged in the write queue
system.mem_ctrls.bytesReadDRAM              464323136                       # Total number of bytes read from DRAM
system.mem_ctrls.bytesReadWrQ                62920256                       # Total number of bytes read from write queue
system.mem_ctrls.bytesWritten               500381504                       # Total number of bytes written to DRAM
system.mem_ctrls.bytesReadSys               527243392                       # Total read bytes from the system interface side
system.mem_ctrls.bytesWrittenSys            527417472                       # Total written bytes from the system interface side
system.mem_ctrls.servicedByWrQ                 983129                       # Number of DRAM read bursts serviced by the write queue
system.mem_ctrls.mergedWrBursts                422436                       # Number of DRAM write bursts merged with an existing one
system.mem_ctrls.neitherReadNorWriteReqs            0                       # Number of requests that are neither read nor write
system.mem_ctrls.perBankRdBursts::0           1235625                       # Per bank write bursts
system.mem_ctrls.perBankRdBursts::1            449875                       # Per bank write bursts
system.mem_ctrls.perBankRdBursts::2            164806                       # Per bank write bursts
system.mem_ctrls.perBankRdBursts::3            192064                       # Per bank write bursts
system.mem_ctrls.perBankRdBursts::4            192105                       # Per bank write bursts
system.mem_ctrls.perBankRdBursts::5            427328                       # Per bank write bursts
system.mem_ctrls.perBankRdBursts::6            250146                       # Per bank write bursts
system.mem_ctrls.perBankRdBursts::7            372675                       # Per bank write bursts
system.mem_ctrls.perBankRdBursts::8            295138                       # Per bank write bursts
system.mem_ctrls.perBankRdBursts::9            248405                       # Per bank write bursts
system.mem_ctrls.perBankRdBursts::10           203059                       # Per bank write bursts
system.mem_ctrls.perBankRdBursts::11           440023                       # Per bank write bursts
system.mem_ctrls.perBankRdBursts::12           662561                       # Per bank write bursts
system.mem_ctrls.perBankRdBursts::13           756973                       # Per bank write bursts
system.mem_ctrls.perBankRdBursts::14           523172                       # Per bank write bursts
system.mem_ctrls.perBankRdBursts::15           841094                       # Per bank write bursts
system.mem_ctrls.perBankWrBursts::0           1350513                       # Per bank write bursts
system.mem_ctrls.perBankWrBursts::1            516997                       # Per bank write bursts
system.mem_ctrls.perBankWrBursts::2            171657                       # Per bank write bursts
system.mem_ctrls.perBankWrBursts::3            200338                       # Per bank write bursts
system.mem_ctrls.perBankWrBursts::4            195619                       # Per bank write bursts
system.mem_ctrls.perBankWrBursts::5            485553                       # Per bank write bursts
system.mem_ctrls.perBankWrBursts::6            253128                       # Per bank write bursts
system.mem_ctrls.perBankWrBursts::7            390238                       # Per bank write bursts
system.mem_ctrls.perBankWrBursts::8            342727                       # Per bank write bursts
system.mem_ctrls.perBankWrBursts::9            270047                       # Per bank write bursts
system.mem_ctrls.perBankWrBursts::10           224356                       # Per bank write bursts
system.mem_ctrls.perBankWrBursts::11           450343                       # Per bank write bursts
system.mem_ctrls.perBankWrBursts::12           714194                       # Per bank write bursts
system.mem_ctrls.perBankWrBursts::13           844796                       # Per bank write bursts
system.mem_ctrls.perBankWrBursts::14           544240                       # Per bank write bursts
system.mem_ctrls.perBankWrBursts::15           863715                       # Per bank write bursts
system.mem_ctrls.numRdRetry                         0                       # Number of times read queue was full causing retry
system.mem_ctrls.numWrRetry                         0                       # Number of times write queue was full causing retry
system.mem_ctrls.totGap                  4060421855000                       # Total gap between requests
system.mem_ctrls.readPktSize::0                     0                       # Read request sizes (log2)
system.mem_ctrls.readPktSize::1                     0                       # Read request sizes (log2)
system.mem_ctrls.readPktSize::2                     0                       # Read request sizes (log2)
system.mem_ctrls.readPktSize::3                     0                       # Read request sizes (log2)
system.mem_ctrls.readPktSize::4                     0                       # Read request sizes (log2)
system.mem_ctrls.readPktSize::5                     0                       # Read request sizes (log2)
system.mem_ctrls.readPktSize::6               8238178                       # Read request sizes (log2)
system.mem_ctrls.writePktSize::0                    0                       # Write request sizes (log2)
system.mem_ctrls.writePktSize::1                    0                       # Write request sizes (log2)
system.mem_ctrls.writePktSize::2                    0                       # Write request sizes (log2)
system.mem_ctrls.writePktSize::3                    0                       # Write request sizes (log2)
system.mem_ctrls.writePktSize::4                    0                       # Write request sizes (log2)
system.mem_ctrls.writePktSize::5                    0                       # Write request sizes (log2)
system.mem_ctrls.writePktSize::6              8240898                       # Write request sizes (log2)
system.mem_ctrls.rdQLenPdf::0                 7232888                       # What read queue length does an incoming req see
system.mem_ctrls.rdQLenPdf::1                   22114                       # What read queue length does an incoming req see
system.mem_ctrls.rdQLenPdf::2                      47                       # What read queue length does an incoming req see
system.mem_ctrls.rdQLenPdf::3                       0                       # What read queue length does an incoming req see
system.mem_ctrls.rdQLenPdf::4                       0                       # What read queue length does an incoming req see
system.mem_ctrls.rdQLenPdf::5                       0                       # What read queue length does an incoming req see
system.mem_ctrls.rdQLenPdf::6                       0                       # What read queue length does an incoming req see
system.mem_ctrls.rdQLenPdf::7                       0                       # What read queue length does an incoming req see
system.mem_ctrls.rdQLenPdf::8                       0                       # What read queue length does an incoming req see
system.mem_ctrls.rdQLenPdf::9                       0                       # What read queue length does an incoming req see
system.mem_ctrls.rdQLenPdf::10                      0                       # What read queue length does an incoming req see
system.mem_ctrls.rdQLenPdf::11                      0                       # What read queue length does an incoming req see
system.mem_ctrls.rdQLenPdf::12                      0                       # What read queue length does an incoming req see
system.mem_ctrls.rdQLenPdf::13                      0                       # What read queue length does an incoming req see
system.mem_ctrls.rdQLenPdf::14                      0                       # What read queue length does an incoming req see
system.mem_ctrls.rdQLenPdf::15                      0                       # What read queue length does an incoming req see
system.mem_ctrls.rdQLenPdf::16                      0                       # What read queue length does an incoming req see
system.mem_ctrls.rdQLenPdf::17                      0                       # What read queue length does an incoming req see
system.mem_ctrls.rdQLenPdf::18                      0                       # What read queue length does an incoming req see
system.mem_ctrls.rdQLenPdf::19                      0                       # What read queue length does an incoming req see
system.mem_ctrls.rdQLenPdf::20                      0                       # What read queue length does an incoming req see
system.mem_ctrls.rdQLenPdf::21                      0                       # What read queue length does an incoming req see
system.mem_ctrls.rdQLenPdf::22                      0                       # What read queue length does an incoming req see
system.mem_ctrls.rdQLenPdf::23                      0                       # What read queue length does an incoming req see
system.mem_ctrls.rdQLenPdf::24                      0                       # What read queue length does an incoming req see
system.mem_ctrls.rdQLenPdf::25                      0                       # What read queue length does an incoming req see
system.mem_ctrls.rdQLenPdf::26                      0                       # What read queue length does an incoming req see
system.mem_ctrls.rdQLenPdf::27                      0                       # What read queue length does an incoming req see
system.mem_ctrls.rdQLenPdf::28                      0                       # What read queue length does an incoming req see
system.mem_ctrls.rdQLenPdf::29                      0                       # What read queue length does an incoming req see
system.mem_ctrls.rdQLenPdf::30                      0                       # What read queue length does an incoming req see
system.mem_ctrls.rdQLenPdf::31                      0                       # What read queue length does an incoming req see
system.mem_ctrls.wrQLenPdf::0                       0                       # What write queue length does an incoming req see
system.mem_ctrls.wrQLenPdf::1                       0                       # What write queue length does an incoming req see
system.mem_ctrls.wrQLenPdf::2                       0                       # What write queue length does an incoming req see
system.mem_ctrls.wrQLenPdf::3                       0                       # What write queue length does an incoming req see
system.mem_ctrls.wrQLenPdf::4                       0                       # What write queue length does an incoming req see
system.mem_ctrls.wrQLenPdf::5                       0                       # What write queue length does an incoming req see
system.mem_ctrls.wrQLenPdf::6                       0                       # What write queue length does an incoming req see
system.mem_ctrls.wrQLenPdf::7                       0                       # What write queue length does an incoming req see
system.mem_ctrls.wrQLenPdf::8                       0                       # What write queue length does an incoming req see
system.mem_ctrls.wrQLenPdf::9                       0                       # What write queue length does an incoming req see
system.mem_ctrls.wrQLenPdf::10                      0                       # What write queue length does an incoming req see
system.mem_ctrls.wrQLenPdf::11                      0                       # What write queue length does an incoming req see
system.mem_ctrls.wrQLenPdf::12                      0                       # What write queue length does an incoming req see
system.mem_ctrls.wrQLenPdf::13                      0                       # What write queue length does an incoming req see
system.mem_ctrls.wrQLenPdf::14                      0                       # What write queue length does an incoming req see
system.mem_ctrls.wrQLenPdf::15                  33827                       # What write queue length does an incoming req see
system.mem_ctrls.wrQLenPdf::16                  38042                       # What write queue length does an incoming req see
system.mem_ctrls.wrQLenPdf::17                 471548                       # What write queue length does an incoming req see
system.mem_ctrls.wrQLenPdf::18                 484893                       # What write queue length does an incoming req see
system.mem_ctrls.wrQLenPdf::19                 486672                       # What write queue length does an incoming req see
system.mem_ctrls.wrQLenPdf::20                 486316                       # What write queue length does an incoming req see
system.mem_ctrls.wrQLenPdf::21                 486339                       # What write queue length does an incoming req see
system.mem_ctrls.wrQLenPdf::22                 487252                       # What write queue length does an incoming req see
system.mem_ctrls.wrQLenPdf::23                 486841                       # What write queue length does an incoming req see
system.mem_ctrls.wrQLenPdf::24                 485880                       # What write queue length does an incoming req see
system.mem_ctrls.wrQLenPdf::25                 485237                       # What write queue length does an incoming req see
system.mem_ctrls.wrQLenPdf::26                 484014                       # What write queue length does an incoming req see
system.mem_ctrls.wrQLenPdf::27                 483501                       # What write queue length does an incoming req see
system.mem_ctrls.wrQLenPdf::28                 483442                       # What write queue length does an incoming req see
system.mem_ctrls.wrQLenPdf::29                 483399                       # What write queue length does an incoming req see
system.mem_ctrls.wrQLenPdf::30                 483306                       # What write queue length does an incoming req see
system.mem_ctrls.wrQLenPdf::31                 483279                       # What write queue length does an incoming req see
system.mem_ctrls.wrQLenPdf::32                 483271                       # What write queue length does an incoming req see
system.mem_ctrls.wrQLenPdf::33                    861                       # What write queue length does an incoming req see
system.mem_ctrls.wrQLenPdf::34                    301                       # What write queue length does an incoming req see
system.mem_ctrls.wrQLenPdf::35                    128                       # What write queue length does an incoming req see
system.mem_ctrls.wrQLenPdf::36                     68                       # What write queue length does an incoming req see
system.mem_ctrls.wrQLenPdf::37                     29                       # What write queue length does an incoming req see
system.mem_ctrls.wrQLenPdf::38                     14                       # What write queue length does an incoming req see
system.mem_ctrls.wrQLenPdf::39                      1                       # What write queue length does an incoming req see
system.mem_ctrls.wrQLenPdf::40                      1                       # What write queue length does an incoming req see
system.mem_ctrls.wrQLenPdf::41                      0                       # What write queue length does an incoming req see
system.mem_ctrls.wrQLenPdf::42                      0                       # What write queue length does an incoming req see
system.mem_ctrls.wrQLenPdf::43                      0                       # What write queue length does an incoming req see
system.mem_ctrls.wrQLenPdf::44                      0                       # What write queue length does an incoming req see
system.mem_ctrls.wrQLenPdf::45                      0                       # What write queue length does an incoming req see
system.mem_ctrls.wrQLenPdf::46                      0                       # What write queue length does an incoming req see
system.mem_ctrls.wrQLenPdf::47                      0                       # What write queue length does an incoming req see
system.mem_ctrls.wrQLenPdf::48                      0                       # What write queue length does an incoming req see
system.mem_ctrls.wrQLenPdf::49                      0                       # What write queue length does an incoming req see
system.mem_ctrls.wrQLenPdf::50                      0                       # What write queue length does an incoming req see
system.mem_ctrls.wrQLenPdf::51                      0                       # What write queue length does an incoming req see
system.mem_ctrls.wrQLenPdf::52                      0                       # What write queue length does an incoming req see
system.mem_ctrls.wrQLenPdf::53                      0                       # What write queue length does an incoming req see
system.mem_ctrls.wrQLenPdf::54                      0                       # What write queue length does an incoming req see
system.mem_ctrls.wrQLenPdf::55                      0                       # What write queue length does an incoming req see
system.mem_ctrls.wrQLenPdf::56                      0                       # What write queue length does an incoming req see
system.mem_ctrls.wrQLenPdf::57                      0                       # What write queue length does an incoming req see
system.mem_ctrls.wrQLenPdf::58                      0                       # What write queue length does an incoming req see
system.mem_ctrls.wrQLenPdf::59                      0                       # What write queue length does an incoming req see
system.mem_ctrls.wrQLenPdf::60                      0                       # What write queue length does an incoming req see
system.mem_ctrls.wrQLenPdf::61                      0                       # What write queue length does an incoming req see
system.mem_ctrls.wrQLenPdf::62                      0                       # What write queue length does an incoming req see
system.mem_ctrls.wrQLenPdf::63                      0                       # What write queue length does an incoming req see
system.mem_ctrls.bytesPerActivate::samples      5156581                       # Bytes accessed per row activation
system.mem_ctrls.bytesPerActivate::mean    187.082137                       # Bytes accessed per row activation
system.mem_ctrls.bytesPerActivate::gmean   136.053145                       # Bytes accessed per row activation
system.mem_ctrls.bytesPerActivate::stdev   173.369715                       # Bytes accessed per row activation
system.mem_ctrls.bytesPerActivate::0-127      2113392     40.98%     40.98% # Bytes accessed per row activation
system.mem_ctrls.bytesPerActivate::128-255      1673066     32.45%     73.43% # Bytes accessed per row activation
system.mem_ctrls.bytesPerActivate::256-383       658102     12.76%     86.19% # Bytes accessed per row activation
system.mem_ctrls.bytesPerActivate::384-511       335676      6.51%     92.70% # Bytes accessed per row activation
system.mem_ctrls.bytesPerActivate::512-639       179391      3.48%     96.18% # Bytes accessed per row activation
system.mem_ctrls.bytesPerActivate::640-767        96318      1.87%     98.05% # Bytes accessed per row activation
system.mem_ctrls.bytesPerActivate::768-895        48002      0.93%     98.98% # Bytes accessed per row activation
system.mem_ctrls.bytesPerActivate::896-1023        22863      0.44%     99.42% # Bytes accessed per row activation
system.mem_ctrls.bytesPerActivate::1024-1151        29771      0.58%    100.00% # Bytes accessed per row activation
system.mem_ctrls.bytesPerActivate::total      5156581                       # Bytes accessed per row activation
system.mem_ctrls.rdPerTurnAround::samples       483244                       # Reads before turning the bus around for writes
system.mem_ctrls.rdPerTurnAround::mean      15.013219                       # Reads before turning the bus around for writes
system.mem_ctrls.rdPerTurnAround::stdev      3.198078                       # Reads before turning the bus around for writes
system.mem_ctrls.rdPerTurnAround::0-7            7628      1.58%      1.58% # Reads before turning the bus around for writes
system.mem_ctrls.rdPerTurnAround::8-15         213768     44.24%     45.81% # Reads before turning the bus around for writes
system.mem_ctrls.rdPerTurnAround::16-23        258064     53.40%     99.22% # Reads before turning the bus around for writes
system.mem_ctrls.rdPerTurnAround::24-31          2411      0.50%     99.72% # Reads before turning the bus around for writes
system.mem_ctrls.rdPerTurnAround::32-39           361      0.07%     99.79% # Reads before turning the bus around for writes
system.mem_ctrls.rdPerTurnAround::40-47           239      0.05%     99.84% # Reads before turning the bus around for writes
system.mem_ctrls.rdPerTurnAround::48-55           268      0.06%     99.90% # Reads before turning the bus around for writes
system.mem_ctrls.rdPerTurnAround::56-63           235      0.05%     99.94% # Reads before turning the bus around for writes
system.mem_ctrls.rdPerTurnAround::64-71           143      0.03%     99.97% # Reads before turning the bus around for writes
system.mem_ctrls.rdPerTurnAround::72-79            69      0.01%     99.99% # Reads before turning the bus around for writes
system.mem_ctrls.rdPerTurnAround::80-87            32      0.01%     99.99% # Reads before turning the bus around for writes
system.mem_ctrls.rdPerTurnAround::88-95            18      0.00%    100.00% # Reads before turning the bus around for writes
system.mem_ctrls.rdPerTurnAround::96-103            3      0.00%    100.00% # Reads before turning the bus around for writes
system.mem_ctrls.rdPerTurnAround::104-111            1      0.00%    100.00% # Reads before turning the bus around for writes
system.mem_ctrls.rdPerTurnAround::112-119            2      0.00%    100.00% # Reads before turning the bus around for writes
system.mem_ctrls.rdPerTurnAround::120-127            1      0.00%    100.00% # Reads before turning the bus around for writes
system.mem_ctrls.rdPerTurnAround::128-135            1      0.00%    100.00% # Reads before turning the bus around for writes
system.mem_ctrls.rdPerTurnAround::total        483244                       # Reads before turning the bus around for writes
system.mem_ctrls.wrPerTurnAround::samples       483244                       # Writes before turning the bus around for reads
system.mem_ctrls.wrPerTurnAround::mean      16.179117                       # Writes before turning the bus around for reads
system.mem_ctrls.wrPerTurnAround::gmean     16.167151                       # Writes before turning the bus around for reads
system.mem_ctrls.wrPerTurnAround::stdev      0.654883                       # Writes before turning the bus around for reads
system.mem_ctrls.wrPerTurnAround::16           445723     92.24%     92.24% # Writes before turning the bus around for reads
system.mem_ctrls.wrPerTurnAround::17             1507      0.31%     92.55% # Writes before turning the bus around for reads
system.mem_ctrls.wrPerTurnAround::18            26719      5.53%     98.08% # Writes before turning the bus around for reads
system.mem_ctrls.wrPerTurnAround::19             6370      1.32%     99.39% # Writes before turning the bus around for reads
system.mem_ctrls.wrPerTurnAround::20             2555      0.53%     99.92% # Writes before turning the bus around for reads
system.mem_ctrls.wrPerTurnAround::21              220      0.05%     99.97% # Writes before turning the bus around for reads
system.mem_ctrls.wrPerTurnAround::22               60      0.01%     99.98% # Writes before turning the bus around for reads
system.mem_ctrls.wrPerTurnAround::23               18      0.00%     99.99% # Writes before turning the bus around for reads
system.mem_ctrls.wrPerTurnAround::24               38      0.01%     99.99% # Writes before turning the bus around for reads
system.mem_ctrls.wrPerTurnAround::25               10      0.00%    100.00% # Writes before turning the bus around for reads
system.mem_ctrls.wrPerTurnAround::26                7      0.00%    100.00% # Writes before turning the bus around for reads
system.mem_ctrls.wrPerTurnAround::27                7      0.00%    100.00% # Writes before turning the bus around for reads
system.mem_ctrls.wrPerTurnAround::28                6      0.00%    100.00% # Writes before turning the bus around for reads
system.mem_ctrls.wrPerTurnAround::30                1      0.00%    100.00% # Writes before turning the bus around for reads
system.mem_ctrls.wrPerTurnAround::33                1      0.00%    100.00% # Writes before turning the bus around for reads
system.mem_ctrls.wrPerTurnAround::34                1      0.00%    100.00% # Writes before turning the bus around for reads
system.mem_ctrls.wrPerTurnAround::50                1      0.00%    100.00% # Writes before turning the bus around for reads
system.mem_ctrls.wrPerTurnAround::total        483244                       # Writes before turning the bus around for reads
system.mem_ctrls.totQLat                 113250014968                       # Total ticks spent queuing
system.mem_ctrls.totMemAccLat            249282183718                       # Total ticks spent from burst creation until serviced by the DRAM
system.mem_ctrls.totBusLat                36275245000                       # Total ticks spent in databus transfers
system.mem_ctrls.avgQLat                     15609.82                       # Average queueing delay per DRAM burst
system.mem_ctrls.avgBusLat                    5000.00                       # Average bus latency per DRAM burst
system.mem_ctrls.avgMemAccLat                34359.82                       # Average memory access latency per DRAM burst
system.mem_ctrls.avgRdBW                       114.35                       # Average DRAM read bandwidth in MiByte/s
system.mem_ctrls.avgWrBW                       123.23                       # Average achieved write bandwidth in MiByte/s
system.mem_ctrls.avgRdBWSys                    129.85                       # Average system read bandwidth in MiByte/s
system.mem_ctrls.avgWrBWSys                    129.89                       # Average system write bandwidth in MiByte/s
system.mem_ctrls.peakBW                      12800.00                       # Theoretical peak bandwidth in MiByte/s
system.mem_ctrls.busUtil                         1.86                       # Data bus utilization in percentage
system.mem_ctrls.busUtilRead                     0.89                       # Data bus utilization in percentage for reads
system.mem_ctrls.busUtilWrite                    0.96                       # Data bus utilization in percentage for writes
system.mem_ctrls.avgRdQLen                       1.00                       # Average read queue length when enqueuing
system.mem_ctrls.avgWrQLen                      25.48                       # Average write queue length when enqueuing
system.mem_ctrls.readRowHits                  4771008                       # Number of row buffer hits during reads
system.mem_ctrls.writeRowHits                 5145915                       # Number of row buffer hits during writes
system.mem_ctrls.readRowHitRate                 65.76                       # Row buffer hit rate for reads
system.mem_ctrls.writeRowHitRate                65.82                       # Row buffer hit rate for writes
system.mem_ctrls.avgGap                     246398.64                       # Average gap between requests
system.mem_ctrls.pageHitRate                    65.79                       # Row buffer hit rate, read and write combined
system.mem_ctrls_0.actEnergy              17413991280                       # Energy for activate commands per rank (pJ)
system.mem_ctrls_0.preEnergy               9501681750                       # Energy for precharge commands per rank (pJ)
system.mem_ctrls_0.readEnergy             25793437800                       # Energy for read commands per rank (pJ)
system.mem_ctrls_0.writeEnergy            23238537120                       # Energy for write commands per rank (pJ)
system.mem_ctrls_0.refreshEnergy         265541044080                       # Energy for refresh commands per rank (pJ)
system.mem_ctrls_0.actBackEnergy         1433050987230                       # Energy for active background per rank (pJ)
system.mem_ctrls_0.preBackEnergy         1182259446750                       # Energy for precharge background per rank (pJ)
system.mem_ctrls_0.totalEnergy           2956799126010                       # Total energy per rank (pJ)
system.mem_ctrls_0.averagePower            727.283926                       # Core power per rank (mW)
system.mem_ctrls_0.memoryStateTime::IDLE 1957535396252                       # Time in different power states
system.mem_ctrls_0.memoryStateTime::REF  135586360000                       # Time in different power states
system.mem_ctrls_0.memoryStateTime::PRE_PDN            0                       # Time in different power states
system.mem_ctrls_0.memoryStateTime::ACT  1967298611248                       # Time in different power states
system.mem_ctrls_0.memoryStateTime::ACT_PDN            0                       # Time in different power states
system.mem_ctrls_1.actEnergy              21838201560                       # Energy for activate commands per rank (pJ)
system.mem_ctrls_1.preEnergy              11915685375                       # Energy for precharge commands per rank (pJ)
system.mem_ctrls_1.readEnergy             31122148200                       # Energy for read commands per rank (pJ)
system.mem_ctrls_1.writeEnergy            27690854400                       # Energy for write commands per rank (pJ)
system.mem_ctrls_1.refreshEnergy         265541044080                       # Energy for refresh commands per rank (pJ)
system.mem_ctrls_1.actBackEnergy         1653766531155                       # Energy for active background per rank (pJ)
system.mem_ctrls_1.preBackEnergy         988649320500                       # Energy for precharge background per rank (pJ)
system.mem_ctrls_1.totalEnergy           3000523785270                       # Total energy per rank (pJ)
system.mem_ctrls_1.averagePower            738.038882                       # Core power per rank (mW)
system.mem_ctrls_1.memoryStateTime::IDLE 1634675063003                       # Time in different power states
system.mem_ctrls_1.memoryStateTime::REF  135586360000                       # Time in different power states
system.mem_ctrls_1.memoryStateTime::PRE_PDN            0                       # Time in different power states
system.mem_ctrls_1.memoryStateTime::ACT  2290158877997                       # Time in different power states
system.mem_ctrls_1.memoryStateTime::ACT_PDN            0                       # Time in different power states
system.cpu_voltage_domain.voltage                   1                       # Voltage in Volts
system.cpu_clk_domain.clock                       500                       # Clock period in ticks
system.cpu0.apic_clk_domain.clock                8000                       # Clock period in ticks
system.cpu0.numCycles                      8125427941                       # number of cpu cycles simulated
system.cpu0.numWorkItemsStarted                     0                       # number of work items this cpu started
system.cpu0.numWorkItemsCompleted                   0                       # number of work items this cpu completed
system.cpu0.kern.inst.arm                           0                       # number of arm instructions executed
system.cpu0.kern.inst.quiesce                       0                       # number of quiesce instructions executed
system.cpu0.committedInsts                 1994638053                       # Number of instructions committed
system.cpu0.committedOps                   3393350073                       # Number of ops (including micro ops) committed
system.cpu0.num_int_alu_accesses           2757988868                       # Number of integer alu accesses
system.cpu0.num_fp_alu_accesses            1010088632                       # Number of float alu accesses
system.cpu0.num_func_calls                   49961478                       # number of times a function call or return occured
system.cpu0.num_conditional_control_insts    199835492                       # number of instructions that are conditional controls
system.cpu0.num_int_insts                  2757988868                       # number of integer instructions
system.cpu0.num_fp_insts                   1010088632                       # number of float instructions
system.cpu0.num_int_register_reads         5219193655                       # number of times the integer registers were read
system.cpu0.num_int_register_writes        2052952193                       # number of times the integer registers were written
system.cpu0.num_fp_register_reads          1701898935                       # number of times the floating registers were read
system.cpu0.num_fp_register_writes          899765754                       # number of times the floating registers were written
system.cpu0.num_cc_register_reads          1288827010                       # number of times the CC registers were read
system.cpu0.num_cc_register_writes         1039498956                       # number of times the CC registers were written
system.cpu0.num_mem_refs                    738353030                       # number of memory refs
system.cpu0.num_load_insts                  571877003                       # Number of load instructions
system.cpu0.num_store_insts                 166476027                       # Number of store instructions
system.cpu0.num_idle_cycles              76244470.149993                       # Number of idle cycles
system.cpu0.num_busy_cycles              8049183470.850007                       # Number of busy cycles
system.cpu0.not_idle_fraction                0.990617                       # Percentage of non-idle cycles
system.cpu0.idle_fraction                    0.009383                       # Percentage of idle cycles
system.cpu0.Branches                        261213025                       # Number of branches fetched
system.cpu0.op_class::No_OpClass              1515068      0.04%      0.04% # Class of executed instruction
system.cpu0.op_class::IntAlu               2189607348     64.53%     64.57% # Class of executed instruction
system.cpu0.op_class::IntMult                24044955      0.71%     65.28% # Class of executed instruction
system.cpu0.op_class::IntDiv                   210372      0.01%     65.29% # Class of executed instruction
system.cpu0.op_class::FloatAdd              439619455     12.96%     78.24% # Class of executed instruction
system.cpu0.op_class::FloatCmp                      0      0.00%     78.24% # Class of executed instruction
system.cpu0.op_class::FloatCvt                      0      0.00%     78.24% # Class of executed instruction
system.cpu0.op_class::FloatMult                     0      0.00%     78.24% # Class of executed instruction
system.cpu0.op_class::FloatDiv                      0      0.00%     78.24% # Class of executed instruction
system.cpu0.op_class::FloatSqrt                     0      0.00%     78.24% # Class of executed instruction
system.cpu0.op_class::SimdAdd                       0      0.00%     78.24% # Class of executed instruction
system.cpu0.op_class::SimdAddAcc                    0      0.00%     78.24% # Class of executed instruction
system.cpu0.op_class::SimdAlu                       0      0.00%     78.24% # Class of executed instruction
system.cpu0.op_class::SimdCmp                       0      0.00%     78.24% # Class of executed instruction
system.cpu0.op_class::SimdCvt                       0      0.00%     78.24% # Class of executed instruction
system.cpu0.op_class::SimdMisc                      0      0.00%     78.24% # Class of executed instruction
system.cpu0.op_class::SimdMult                      0      0.00%     78.24% # Class of executed instruction
system.cpu0.op_class::SimdMultAcc                   0      0.00%     78.24% # Class of executed instruction
system.cpu0.op_class::SimdShift                     0      0.00%     78.24% # Class of executed instruction
system.cpu0.op_class::SimdShiftAcc                  0      0.00%     78.24% # Class of executed instruction
system.cpu0.op_class::SimdSqrt                      0      0.00%     78.24% # Class of executed instruction
system.cpu0.op_class::SimdFloatAdd                  0      0.00%     78.24% # Class of executed instruction
system.cpu0.op_class::SimdFloatAlu                  0      0.00%     78.24% # Class of executed instruction
system.cpu0.op_class::SimdFloatCmp                  0      0.00%     78.24% # Class of executed instruction
system.cpu0.op_class::SimdFloatCvt                  0      0.00%     78.24% # Class of executed instruction
system.cpu0.op_class::SimdFloatDiv                  0      0.00%     78.24% # Class of executed instruction
system.cpu0.op_class::SimdFloatMisc                 0      0.00%     78.24% # Class of executed instruction
system.cpu0.op_class::SimdFloatMult                 0      0.00%     78.24% # Class of executed instruction
system.cpu0.op_class::SimdFloatMultAcc              0      0.00%     78.24% # Class of executed instruction
system.cpu0.op_class::SimdFloatSqrt                 0      0.00%     78.24% # Class of executed instruction
system.cpu0.op_class::MemRead               571877003     16.85%     95.09% # Class of executed instruction
system.cpu0.op_class::MemWrite              166476027      4.91%    100.00% # Class of executed instruction
system.cpu0.op_class::IprAccess                     0      0.00%    100.00% # Class of executed instruction
system.cpu0.op_class::InstPrefetch                  0      0.00%    100.00% # Class of executed instruction
system.cpu0.op_class::total                3393350228                       # Class of executed instruction
system.cpu1.apic_clk_domain.clock                8000                       # Clock period in ticks
system.cpu1.numCycles                      8123579169                       # number of cpu cycles simulated
system.cpu1.numWorkItemsStarted                     0                       # number of work items this cpu started
system.cpu1.numWorkItemsCompleted                   0                       # number of work items this cpu completed
system.cpu1.kern.inst.arm                           0                       # number of arm instructions executed
system.cpu1.kern.inst.quiesce                       0                       # number of quiesce instructions executed
system.cpu1.committedInsts                    3036542                       # Number of instructions committed
system.cpu1.committedOps                      6511080                       # Number of ops (including micro ops) committed
system.cpu1.num_int_alu_accesses              6370397                       # Number of integer alu accesses
system.cpu1.num_fp_alu_accesses                    65                       # Number of float alu accesses
system.cpu1.num_func_calls                     177237                       # number of times a function call or return occured
system.cpu1.num_conditional_control_insts       467180                       # number of instructions that are conditional controls
system.cpu1.num_int_insts                     6370397                       # number of integer instructions
system.cpu1.num_fp_insts                           65                       # number of float instructions
system.cpu1.num_int_register_reads           12912696                       # number of times the integer registers were read
system.cpu1.num_int_register_writes           5282282                       # number of times the integer registers were written
system.cpu1.num_fp_register_reads                  82                       # number of times the floating registers were read
system.cpu1.num_fp_register_writes                 44                       # number of times the floating registers were written
system.cpu1.num_cc_register_reads             3711549                       # number of times the CC registers were read
system.cpu1.num_cc_register_writes            1949299                       # number of times the CC registers were written
system.cpu1.num_mem_refs                      1535842                       # number of memory refs
system.cpu1.num_load_insts                     954985                       # Number of load instructions
system.cpu1.num_store_insts                    580857                       # Number of store instructions
system.cpu1.num_idle_cycles              8096380581.295065                       # Number of idle cycles
system.cpu1.num_busy_cycles              27198587.704935                       # Number of busy cycles
system.cpu1.not_idle_fraction                0.003348                       # Percentage of non-idle cycles
system.cpu1.idle_fraction                    0.996652                       # Percentage of idle cycles
system.cpu1.Branches                           702006                       # Number of branches fetched
system.cpu1.op_class::No_OpClass               118813      1.82%      1.82% # Class of executed instruction
system.cpu1.op_class::IntAlu                  4800601     73.73%     75.55% # Class of executed instruction
system.cpu1.op_class::IntMult                   13001      0.20%     75.75% # Class of executed instruction
system.cpu1.op_class::IntDiv                    42821      0.66%     76.41% # Class of executed instruction
system.cpu1.op_class::FloatAdd                     22      0.00%     76.41% # Class of executed instruction
system.cpu1.op_class::FloatCmp                      0      0.00%     76.41% # Class of executed instruction
system.cpu1.op_class::FloatCvt                      0      0.00%     76.41% # Class of executed instruction
system.cpu1.op_class::FloatMult                     0      0.00%     76.41% # Class of executed instruction
system.cpu1.op_class::FloatDiv                      0      0.00%     76.41% # Class of executed instruction
system.cpu1.op_class::FloatSqrt                     0      0.00%     76.41% # Class of executed instruction
system.cpu1.op_class::SimdAdd                       0      0.00%     76.41% # Class of executed instruction
system.cpu1.op_class::SimdAddAcc                    0      0.00%     76.41% # Class of executed instruction
system.cpu1.op_class::SimdAlu                       0      0.00%     76.41% # Class of executed instruction
system.cpu1.op_class::SimdCmp                       0      0.00%     76.41% # Class of executed instruction
system.cpu1.op_class::SimdCvt                       0      0.00%     76.41% # Class of executed instruction
system.cpu1.op_class::SimdMisc                      0      0.00%     76.41% # Class of executed instruction
system.cpu1.op_class::SimdMult                      0      0.00%     76.41% # Class of executed instruction
system.cpu1.op_class::SimdMultAcc                   0      0.00%     76.41% # Class of executed instruction
system.cpu1.op_class::SimdShift                     0      0.00%     76.41% # Class of executed instruction
system.cpu1.op_class::SimdShiftAcc                  0      0.00%     76.41% # Class of executed instruction
system.cpu1.op_class::SimdSqrt                      0      0.00%     76.41% # Class of executed instruction
system.cpu1.op_class::SimdFloatAdd                  0      0.00%     76.41% # Class of executed instruction
system.cpu1.op_class::SimdFloatAlu                  0      0.00%     76.41% # Class of executed instruction
system.cpu1.op_class::SimdFloatCmp                  0      0.00%     76.41% # Class of executed instruction
system.cpu1.op_class::SimdFloatCvt                  0      0.00%     76.41% # Class of executed instruction
system.cpu1.op_class::SimdFloatDiv                  0      0.00%     76.41% # Class of executed instruction
system.cpu1.op_class::SimdFloatMisc                 0      0.00%     76.41% # Class of executed instruction
system.cpu1.op_class::SimdFloatMult                 0      0.00%     76.41% # Class of executed instruction
system.cpu1.op_class::SimdFloatMultAcc              0      0.00%     76.41% # Class of executed instruction
system.cpu1.op_class::SimdFloatSqrt                 0      0.00%     76.41% # Class of executed instruction
system.cpu1.op_class::MemRead                  954985     14.67%     91.08% # Class of executed instruction
system.cpu1.op_class::MemWrite                 580857      8.92%    100.00% # Class of executed instruction
system.cpu1.op_class::IprAccess                     0      0.00%    100.00% # Class of executed instruction
system.cpu1.op_class::InstPrefetch                  0      0.00%    100.00% # Class of executed instruction
system.cpu1.op_class::total                   6511100                       # Class of executed instruction
system.cpu2.apic_clk_domain.clock                8000                       # Clock period in ticks
system.cpu2.numCycles                      8120185205                       # number of cpu cycles simulated
system.cpu2.numWorkItemsStarted                     0                       # number of work items this cpu started
system.cpu2.numWorkItemsCompleted                   0                       # number of work items this cpu completed
system.cpu2.kern.inst.arm                           0                       # number of arm instructions executed
system.cpu2.kern.inst.quiesce                       0                       # number of quiesce instructions executed
system.cpu2.committedInsts                    3598243                       # Number of instructions committed
system.cpu2.committedOps                      7523430                       # Number of ops (including micro ops) committed
system.cpu2.num_int_alu_accesses              7371897                       # Number of integer alu accesses
system.cpu2.num_fp_alu_accesses                  1837                       # Number of float alu accesses
system.cpu2.num_func_calls                     192610                       # number of times a function call or return occured
system.cpu2.num_conditional_control_insts       555820                       # number of instructions that are conditional controls
system.cpu2.num_int_insts                     7371897                       # number of integer instructions
system.cpu2.num_fp_insts                         1837                       # number of float instructions
system.cpu2.num_int_register_reads           14961111                       # number of times the integer registers were read
system.cpu2.num_int_register_writes           6091594                       # number of times the integer registers were written
system.cpu2.num_fp_register_reads                3081                       # number of times the floating registers were read
system.cpu2.num_fp_register_writes               1457                       # number of times the floating registers were written
system.cpu2.num_cc_register_reads             4288854                       # number of times the CC registers were read
system.cpu2.num_cc_register_writes            2315080                       # number of times the CC registers were written
system.cpu2.num_mem_refs                      1761954                       # number of memory refs
system.cpu2.num_load_insts                    1092569                       # Number of load instructions
system.cpu2.num_store_insts                    669385                       # Number of store instructions
system.cpu2.num_idle_cycles              8089541951.896276                       # Number of idle cycles
system.cpu2.num_busy_cycles              30643253.103723                       # Number of busy cycles
system.cpu2.not_idle_fraction                0.003774                       # Percentage of non-idle cycles
system.cpu2.idle_fraction                    0.996226                       # Percentage of idle cycles
system.cpu2.Branches                           813615                       # Number of branches fetched
system.cpu2.op_class::No_OpClass               124492      1.65%      1.65% # Class of executed instruction
system.cpu2.op_class::IntAlu                  5577736     74.14%     75.79% # Class of executed instruction
system.cpu2.op_class::IntMult                   13747      0.18%     75.97% # Class of executed instruction
system.cpu2.op_class::IntDiv                    44224      0.59%     76.56% # Class of executed instruction
system.cpu2.op_class::FloatAdd                   1366      0.02%     76.58% # Class of executed instruction
system.cpu2.op_class::FloatCmp                      0      0.00%     76.58% # Class of executed instruction
system.cpu2.op_class::FloatCvt                      0      0.00%     76.58% # Class of executed instruction
system.cpu2.op_class::FloatMult                     0      0.00%     76.58% # Class of executed instruction
system.cpu2.op_class::FloatDiv                      0      0.00%     76.58% # Class of executed instruction
system.cpu2.op_class::FloatSqrt                     0      0.00%     76.58% # Class of executed instruction
system.cpu2.op_class::SimdAdd                       0      0.00%     76.58% # Class of executed instruction
system.cpu2.op_class::SimdAddAcc                    0      0.00%     76.58% # Class of executed instruction
system.cpu2.op_class::SimdAlu                       0      0.00%     76.58% # Class of executed instruction
system.cpu2.op_class::SimdCmp                       0      0.00%     76.58% # Class of executed instruction
system.cpu2.op_class::SimdCvt                       0      0.00%     76.58% # Class of executed instruction
system.cpu2.op_class::SimdMisc                      0      0.00%     76.58% # Class of executed instruction
system.cpu2.op_class::SimdMult                      0      0.00%     76.58% # Class of executed instruction
system.cpu2.op_class::SimdMultAcc                   0      0.00%     76.58% # Class of executed instruction
system.cpu2.op_class::SimdShift                     0      0.00%     76.58% # Class of executed instruction
system.cpu2.op_class::SimdShiftAcc                  0      0.00%     76.58% # Class of executed instruction
system.cpu2.op_class::SimdSqrt                      0      0.00%     76.58% # Class of executed instruction
system.cpu2.op_class::SimdFloatAdd                  0      0.00%     76.58% # Class of executed instruction
system.cpu2.op_class::SimdFloatAlu                  0      0.00%     76.58% # Class of executed instruction
system.cpu2.op_class::SimdFloatCmp                  0      0.00%     76.58% # Class of executed instruction
system.cpu2.op_class::SimdFloatCvt                  0      0.00%     76.58% # Class of executed instruction
system.cpu2.op_class::SimdFloatDiv                  0      0.00%     76.58% # Class of executed instruction
system.cpu2.op_class::SimdFloatMisc                 0      0.00%     76.58% # Class of executed instruction
system.cpu2.op_class::SimdFloatMult                 0      0.00%     76.58% # Class of executed instruction
system.cpu2.op_class::SimdFloatMultAcc              0      0.00%     76.58% # Class of executed instruction
system.cpu2.op_class::SimdFloatSqrt                 0      0.00%     76.58% # Class of executed instruction
system.cpu2.op_class::MemRead                 1092569     14.52%     91.10% # Class of executed instruction
system.cpu2.op_class::MemWrite                 669385      8.90%    100.00% # Class of executed instruction
system.cpu2.op_class::IprAccess                     0      0.00%    100.00% # Class of executed instruction
system.cpu2.op_class::InstPrefetch                  0      0.00%    100.00% # Class of executed instruction
system.cpu2.op_class::total                   7523519                       # Class of executed instruction
system.cpu3.apic_clk_domain.clock                8000                       # Clock period in ticks
system.cpu3.numCycles                      8118208181                       # number of cpu cycles simulated
system.cpu3.numWorkItemsStarted                     0                       # number of work items this cpu started
system.cpu3.numWorkItemsCompleted                   0                       # number of work items this cpu completed
system.cpu3.kern.inst.arm                           0                       # number of arm instructions executed
system.cpu3.kern.inst.quiesce                       0                       # number of quiesce instructions executed
system.cpu3.committedInsts                   19419211                       # Number of instructions committed
system.cpu3.committedOps                     34366227                       # Number of ops (including micro ops) committed
system.cpu3.num_int_alu_accesses             28964517                       # Number of integer alu accesses
system.cpu3.num_fp_alu_accesses               8399271                       # Number of float alu accesses
system.cpu3.num_func_calls                     593661                       # number of times a function call or return occured
system.cpu3.num_conditional_control_insts      2061201                       # number of instructions that are conditional controls
system.cpu3.num_int_insts                    28964517                       # number of integer instructions
system.cpu3.num_fp_insts                      8399271                       # number of float instructions
system.cpu3.num_int_register_reads           55919830                       # number of times the integer registers were read
system.cpu3.num_int_register_writes          22055584                       # number of times the integer registers were written
system.cpu3.num_fp_register_reads            14064247                       # number of times the floating registers were read
system.cpu3.num_fp_register_writes            7474237                       # number of times the floating registers were written
system.cpu3.num_cc_register_reads            14091911                       # number of times the CC registers were read
system.cpu3.num_cc_register_writes           10338980                       # number of times the CC registers were written
system.cpu3.num_mem_refs                      7706937                       # number of memory refs
system.cpu3.num_load_insts                    5735689                       # Number of load instructions
system.cpu3.num_store_insts                   1971248                       # Number of store instructions
system.cpu3.num_idle_cycles              8019165390.294931                       # Number of idle cycles
system.cpu3.num_busy_cycles              99042790.705068                       # Number of busy cycles
system.cpu3.not_idle_fraction                0.012200                       # Percentage of non-idle cycles
system.cpu3.idle_fraction                    0.987800                       # Percentage of idle cycles
system.cpu3.Branches                          2809056                       # Number of branches fetched
system.cpu3.op_class::No_OpClass               131081      0.38%      0.38% # Class of executed instruction
system.cpu3.op_class::IntAlu                 22651544     65.91%     66.29% # Class of executed instruction
system.cpu3.op_class::IntMult                  213955      0.62%     66.92% # Class of executed instruction
system.cpu3.op_class::IntDiv                    44557      0.13%     67.05% # Class of executed instruction
system.cpu3.op_class::FloatAdd                3618197     10.53%     77.57% # Class of executed instruction
system.cpu3.op_class::FloatCmp                      0      0.00%     77.57% # Class of executed instruction
system.cpu3.op_class::FloatCvt                      0      0.00%     77.57% # Class of executed instruction
system.cpu3.op_class::FloatMult                     0      0.00%     77.57% # Class of executed instruction
system.cpu3.op_class::FloatDiv                      0      0.00%     77.57% # Class of executed instruction
system.cpu3.op_class::FloatSqrt                     0      0.00%     77.57% # Class of executed instruction
system.cpu3.op_class::SimdAdd                       0      0.00%     77.57% # Class of executed instruction
system.cpu3.op_class::SimdAddAcc                    0      0.00%     77.57% # Class of executed instruction
system.cpu3.op_class::SimdAlu                       0      0.00%     77.57% # Class of executed instruction
system.cpu3.op_class::SimdCmp                       0      0.00%     77.57% # Class of executed instruction
system.cpu3.op_class::SimdCvt                       0      0.00%     77.57% # Class of executed instruction
system.cpu3.op_class::SimdMisc                      0      0.00%     77.57% # Class of executed instruction
system.cpu3.op_class::SimdMult                      0      0.00%     77.57% # Class of executed instruction
system.cpu3.op_class::SimdMultAcc                   0      0.00%     77.57% # Class of executed instruction
system.cpu3.op_class::SimdShift                     0      0.00%     77.57% # Class of executed instruction
system.cpu3.op_class::SimdShiftAcc                  0      0.00%     77.57% # Class of executed instruction
system.cpu3.op_class::SimdSqrt                      0      0.00%     77.57% # Class of executed instruction
system.cpu3.op_class::SimdFloatAdd                  0      0.00%     77.57% # Class of executed instruction
system.cpu3.op_class::SimdFloatAlu                  0      0.00%     77.57% # Class of executed instruction
system.cpu3.op_class::SimdFloatCmp                  0      0.00%     77.57% # Class of executed instruction
system.cpu3.op_class::SimdFloatCvt                  0      0.00%     77.57% # Class of executed instruction
system.cpu3.op_class::SimdFloatDiv                  0      0.00%     77.57% # Class of executed instruction
system.cpu3.op_class::SimdFloatMisc                 0      0.00%     77.57% # Class of executed instruction
system.cpu3.op_class::SimdFloatMult                 0      0.00%     77.57% # Class of executed instruction
system.cpu3.op_class::SimdFloatMultAcc              0      0.00%     77.57% # Class of executed instruction
system.cpu3.op_class::SimdFloatSqrt                 0      0.00%     77.57% # Class of executed instruction
system.cpu3.op_class::MemRead                 5735689     16.69%     94.26% # Class of executed instruction
system.cpu3.op_class::MemWrite                1971248      5.74%    100.00% # Class of executed instruction
system.cpu3.op_class::IprAccess                     0      0.00%    100.00% # Class of executed instruction
system.cpu3.op_class::InstPrefetch                  0      0.00%    100.00% # Class of executed instruction
system.cpu3.op_class::total                  34366271                       # Class of executed instruction
system.iobus.trans_dist::ReadReq                  114                       # Transaction distribution
system.iobus.trans_dist::ReadResp                 114                       # Transaction distribution
system.iobus.trans_dist::WriteReq                4190                       # Transaction distribution
system.iobus.trans_dist::WriteResp               4190                       # Transaction distribution
system.iobus.trans_dist::MessageReq                20                       # Transaction distribution
system.iobus.trans_dist::MessageResp               20                       # Transaction distribution
system.iobus.pkt_count_system.pc.south_bridge.io_apic.int_master::system.ruby.l1_cntrl0.sequencer.pio-slave-port            4                       # Packet count per connected master and slave (bytes)
system.iobus.pkt_count_system.pc.south_bridge.io_apic.int_master::system.ruby.l1_cntrl1.sequencer.pio-slave-port            4                       # Packet count per connected master and slave (bytes)
system.iobus.pkt_count_system.pc.south_bridge.io_apic.int_master::system.ruby.l1_cntrl2.sequencer.pio-slave-port            6                       # Packet count per connected master and slave (bytes)
system.iobus.pkt_count_system.pc.south_bridge.io_apic.int_master::system.ruby.l1_cntrl3.sequencer.pio-slave-port            4                       # Packet count per connected master and slave (bytes)
system.iobus.pkt_count_system.pc.south_bridge.io_apic.int_master::total           18                       # Packet count per connected master and slave (bytes)
system.iobus.pkt_count_system.ruby.l1_cntrl0.sequencer.mem-master-port::system.pc.south_bridge.ide.pio           12                       # Packet count per connected master and slave (bytes)
system.iobus.pkt_count_system.ruby.l1_cntrl0.sequencer.mem-master-port::system.pc.south_bridge.io_apic.pio            8                       # Packet count per connected master and slave (bytes)
system.iobus.pkt_count_system.ruby.l1_cntrl0.sequencer.mem-master-port::system.ruby.l1_cntrl0.sequencer.pio-slave-port         2060                       # Packet count per connected master and slave (bytes)
system.iobus.pkt_count_system.ruby.l1_cntrl0.sequencer.mem-master-port::system.ruby.l1_cntrl1.sequencer.pio-slave-port            6                       # Packet count per connected master and slave (bytes)
system.iobus.pkt_count_system.ruby.l1_cntrl0.sequencer.mem-master-port::system.ruby.l1_cntrl2.sequencer.pio-slave-port            2                       # Packet count per connected master and slave (bytes)
system.iobus.pkt_count_system.ruby.l1_cntrl0.sequencer.mem-master-port::system.ruby.l1_cntrl3.sequencer.pio-slave-port            4                       # Packet count per connected master and slave (bytes)
system.iobus.pkt_count_system.ruby.l1_cntrl0.sequencer.mem-master-port::total         2092                       # Packet count per connected master and slave (bytes)
system.iobus.pkt_count_system.ruby.l1_cntrl1.sequencer.mem-master-port::system.pc.south_bridge.ide.pio           80                       # Packet count per connected master and slave (bytes)
system.iobus.pkt_count_system.ruby.l1_cntrl1.sequencer.mem-master-port::system.pc.south_bridge.io_apic.pio            8                       # Packet count per connected master and slave (bytes)
system.iobus.pkt_count_system.ruby.l1_cntrl1.sequencer.mem-master-port::system.pc.com_1.pio            2                       # Packet count per connected master and slave (bytes)
system.iobus.pkt_count_system.ruby.l1_cntrl1.sequencer.mem-master-port::system.ruby.l1_cntrl1.sequencer.pio-slave-port         2052                       # Packet count per connected master and slave (bytes)
system.iobus.pkt_count_system.ruby.l1_cntrl1.sequencer.mem-master-port::system.ruby.l1_cntrl2.sequencer.pio-slave-port            2                       # Packet count per connected master and slave (bytes)
system.iobus.pkt_count_system.ruby.l1_cntrl1.sequencer.mem-master-port::total         2144                       # Packet count per connected master and slave (bytes)
system.iobus.pkt_count_system.ruby.l1_cntrl2.sequencer.mem-master-port::system.pc.south_bridge.ide.pio           46                       # Packet count per connected master and slave (bytes)
system.iobus.pkt_count_system.ruby.l1_cntrl2.sequencer.mem-master-port::system.pc.south_bridge.io_apic.pio            6                       # Packet count per connected master and slave (bytes)
system.iobus.pkt_count_system.ruby.l1_cntrl2.sequencer.mem-master-port::system.pc.com_1.pio          176                       # Packet count per connected master and slave (bytes)
system.iobus.pkt_count_system.ruby.l1_cntrl2.sequencer.mem-master-port::system.ruby.l1_cntrl1.sequencer.pio-slave-port            2                       # Packet count per connected master and slave (bytes)
system.iobus.pkt_count_system.ruby.l1_cntrl2.sequencer.mem-master-port::system.ruby.l1_cntrl2.sequencer.pio-slave-port         2052                       # Packet count per connected master and slave (bytes)
system.iobus.pkt_count_system.ruby.l1_cntrl2.sequencer.mem-master-port::system.ruby.l1_cntrl3.sequencer.pio-slave-port            2                       # Packet count per connected master and slave (bytes)
system.iobus.pkt_count_system.ruby.l1_cntrl2.sequencer.mem-master-port::total         2284                       # Packet count per connected master and slave (bytes)
system.iobus.pkt_count_system.ruby.l1_cntrl3.sequencer.mem-master-port::system.pc.south_bridge.ide.pio           46                       # Packet count per connected master and slave (bytes)
system.iobus.pkt_count_system.ruby.l1_cntrl3.sequencer.mem-master-port::system.pc.south_bridge.io_apic.pio            8                       # Packet count per connected master and slave (bytes)
system.iobus.pkt_count_system.ruby.l1_cntrl3.sequencer.mem-master-port::system.ruby.l1_cntrl0.sequencer.pio-slave-port            2                       # Packet count per connected master and slave (bytes)
system.iobus.pkt_count_system.ruby.l1_cntrl3.sequencer.mem-master-port::system.ruby.l1_cntrl1.sequencer.pio-slave-port            2                       # Packet count per connected master and slave (bytes)
system.iobus.pkt_count_system.ruby.l1_cntrl3.sequencer.mem-master-port::system.ruby.l1_cntrl3.sequencer.pio-slave-port         2052                       # Packet count per connected master and slave (bytes)
system.iobus.pkt_count_system.ruby.l1_cntrl3.sequencer.mem-master-port::total         2110                       # Packet count per connected master and slave (bytes)
system.iobus.pkt_count::total                    8648                       # Packet count per connected master and slave (bytes)
system.iobus.pkt_size_system.pc.south_bridge.io_apic.int_master::system.ruby.l1_cntrl0.sequencer.pio-slave-port            8                       # Cumulative packet size per connected master and slave (bytes)
system.iobus.pkt_size_system.pc.south_bridge.io_apic.int_master::system.ruby.l1_cntrl1.sequencer.pio-slave-port            8                       # Cumulative packet size per connected master and slave (bytes)
system.iobus.pkt_size_system.pc.south_bridge.io_apic.int_master::system.ruby.l1_cntrl2.sequencer.pio-slave-port           12                       # Cumulative packet size per connected master and slave (bytes)
system.iobus.pkt_size_system.pc.south_bridge.io_apic.int_master::system.ruby.l1_cntrl3.sequencer.pio-slave-port            8                       # Cumulative packet size per connected master and slave (bytes)
system.iobus.pkt_size_system.pc.south_bridge.io_apic.int_master::total           36                       # Cumulative packet size per connected master and slave (bytes)
system.iobus.pkt_size_system.ruby.l1_cntrl0.sequencer.mem-master-port::system.pc.south_bridge.ide.pio            6                       # Cumulative packet size per connected master and slave (bytes)
system.iobus.pkt_size_system.ruby.l1_cntrl0.sequencer.mem-master-port::system.pc.south_bridge.io_apic.pio           16                       # Cumulative packet size per connected master and slave (bytes)
system.iobus.pkt_size_system.ruby.l1_cntrl0.sequencer.mem-master-port::system.ruby.l1_cntrl0.sequencer.pio-slave-port         4120                       # Cumulative packet size per connected master and slave (bytes)
system.iobus.pkt_size_system.ruby.l1_cntrl0.sequencer.mem-master-port::system.ruby.l1_cntrl1.sequencer.pio-slave-port           12                       # Cumulative packet size per connected master and slave (bytes)
system.iobus.pkt_size_system.ruby.l1_cntrl0.sequencer.mem-master-port::system.ruby.l1_cntrl2.sequencer.pio-slave-port            4                       # Cumulative packet size per connected master and slave (bytes)
system.iobus.pkt_size_system.ruby.l1_cntrl0.sequencer.mem-master-port::system.ruby.l1_cntrl3.sequencer.pio-slave-port            8                       # Cumulative packet size per connected master and slave (bytes)
system.iobus.pkt_size_system.ruby.l1_cntrl0.sequencer.mem-master-port::total         4166                       # Cumulative packet size per connected master and slave (bytes)
system.iobus.pkt_size_system.ruby.l1_cntrl1.sequencer.mem-master-port::system.pc.south_bridge.ide.pio           46                       # Cumulative packet size per connected master and slave (bytes)
system.iobus.pkt_size_system.ruby.l1_cntrl1.sequencer.mem-master-port::system.pc.south_bridge.io_apic.pio           16                       # Cumulative packet size per connected master and slave (bytes)
system.iobus.pkt_size_system.ruby.l1_cntrl1.sequencer.mem-master-port::system.pc.com_1.pio            1                       # Cumulative packet size per connected master and slave (bytes)
system.iobus.pkt_size_system.ruby.l1_cntrl1.sequencer.mem-master-port::system.ruby.l1_cntrl1.sequencer.pio-slave-port         4104                       # Cumulative packet size per connected master and slave (bytes)
system.iobus.pkt_size_system.ruby.l1_cntrl1.sequencer.mem-master-port::system.ruby.l1_cntrl2.sequencer.pio-slave-port            4                       # Cumulative packet size per connected master and slave (bytes)
system.iobus.pkt_size_system.ruby.l1_cntrl1.sequencer.mem-master-port::total         4171                       # Cumulative packet size per connected master and slave (bytes)
system.iobus.pkt_size_system.ruby.l1_cntrl2.sequencer.mem-master-port::system.pc.south_bridge.ide.pio           26                       # Cumulative packet size per connected master and slave (bytes)
system.iobus.pkt_size_system.ruby.l1_cntrl2.sequencer.mem-master-port::system.pc.south_bridge.io_apic.pio           12                       # Cumulative packet size per connected master and slave (bytes)
system.iobus.pkt_size_system.ruby.l1_cntrl2.sequencer.mem-master-port::system.pc.com_1.pio           88                       # Cumulative packet size per connected master and slave (bytes)
system.iobus.pkt_size_system.ruby.l1_cntrl2.sequencer.mem-master-port::system.ruby.l1_cntrl1.sequencer.pio-slave-port            4                       # Cumulative packet size per connected master and slave (bytes)
system.iobus.pkt_size_system.ruby.l1_cntrl2.sequencer.mem-master-port::system.ruby.l1_cntrl2.sequencer.pio-slave-port         4104                       # Cumulative packet size per connected master and slave (bytes)
system.iobus.pkt_size_system.ruby.l1_cntrl2.sequencer.mem-master-port::system.ruby.l1_cntrl3.sequencer.pio-slave-port            4                       # Cumulative packet size per connected master and slave (bytes)
system.iobus.pkt_size_system.ruby.l1_cntrl2.sequencer.mem-master-port::total         4238                       # Cumulative packet size per connected master and slave (bytes)
system.iobus.pkt_size_system.ruby.l1_cntrl3.sequencer.mem-master-port::system.pc.south_bridge.ide.pio           26                       # Cumulative packet size per connected master and slave (bytes)
system.iobus.pkt_size_system.ruby.l1_cntrl3.sequencer.mem-master-port::system.pc.south_bridge.io_apic.pio           16                       # Cumulative packet size per connected master and slave (bytes)
system.iobus.pkt_size_system.ruby.l1_cntrl3.sequencer.mem-master-port::system.ruby.l1_cntrl0.sequencer.pio-slave-port            4                       # Cumulative packet size per connected master and slave (bytes)
system.iobus.pkt_size_system.ruby.l1_cntrl3.sequencer.mem-master-port::system.ruby.l1_cntrl1.sequencer.pio-slave-port            4                       # Cumulative packet size per connected master and slave (bytes)
system.iobus.pkt_size_system.ruby.l1_cntrl3.sequencer.mem-master-port::system.ruby.l1_cntrl3.sequencer.pio-slave-port         4104                       # Cumulative packet size per connected master and slave (bytes)
system.iobus.pkt_size_system.ruby.l1_cntrl3.sequencer.mem-master-port::total         4154                       # Cumulative packet size per connected master and slave (bytes)
system.iobus.pkt_size::total                    16765                       # Cumulative packet size per connected master and slave (bytes)
system.iobus.reqLayer2.occupancy               166500                       # Layer occupancy (ticks)
system.iobus.reqLayer2.utilization                0.0                       # Layer utilization (%)
system.iobus.reqLayer8.occupancy                27496                       # Layer occupancy (ticks)
system.iobus.reqLayer8.utilization                0.0                       # Layer utilization (%)
system.iobus.reqLayer12.occupancy              113500                       # Layer occupancy (ticks)
system.iobus.reqLayer12.utilization               0.0                       # Layer utilization (%)
system.iobus.reqLayer17.occupancy             2334977                       # Layer occupancy (ticks)
system.iobus.reqLayer17.utilization               0.0                       # Layer utilization (%)
system.iobus.reqLayer18.occupancy             2542498                       # Layer occupancy (ticks)
system.iobus.reqLayer18.utilization               0.0                       # Layer utilization (%)
system.iobus.reqLayer19.occupancy             2538997                       # Layer occupancy (ticks)
system.iobus.reqLayer19.utilization               0.0                       # Layer utilization (%)
system.iobus.reqLayer20.occupancy             2257993                       # Layer occupancy (ticks)
system.iobus.reqLayer20.utilization               0.0                       # Layer utilization (%)
system.iobus.respLayer0.occupancy               13996                       # Layer occupancy (ticks)
system.iobus.respLayer0.utilization               0.0                       # Layer utilization (%)
system.iobus.respLayer2.occupancy             1571500                       # Layer occupancy (ticks)
system.iobus.respLayer2.utilization               0.0                       # Layer utilization (%)
system.iobus.respLayer4.occupancy             1600000                       # Layer occupancy (ticks)
system.iobus.respLayer4.utilization               0.0                       # Layer utilization (%)
system.iobus.respLayer6.occupancy             1732500                       # Layer occupancy (ticks)
system.iobus.respLayer6.utilization               0.0                       # Layer utilization (%)
system.iobus.respLayer8.occupancy             1580000                       # Layer occupancy (ticks)
system.iobus.respLayer8.utilization               0.0                       # Layer utilization (%)
system.pc.south_bridge.ide.disks.dma_read_full_pages            1                       # Number of full page size DMA reads (not PRD).
system.pc.south_bridge.ide.disks.dma_read_bytes         4096                       # Number of bytes transfered via DMA reads (not PRD).
system.pc.south_bridge.ide.disks.dma_read_txs            1                       # Number of DMA read transactions (not PRD).
system.pc.south_bridge.ide.disks.dma_write_full_pages           45                       # Number of full page size DMA writes.
system.pc.south_bridge.ide.disks.dma_write_bytes       184320                       # Number of bytes transfered via DMA writes.
system.pc.south_bridge.ide.disks.dma_write_txs           45                       # Number of DMA write transactions.
system.ruby.clk_domain.clock                      500                       # Clock period in ticks
system.ruby.delayHist::bucket_size                  2                       # delay histogram for all message
system.ruby.delayHist::max_bucket                  19                       # delay histogram for all message
system.ruby.delayHist::samples               18021192                       # delay histogram for all message
system.ruby.delayHist::mean                  0.003951                       # delay histogram for all message
system.ruby.delayHist::stdev                 0.183334                       # delay histogram for all message
[...]
system.ruby.LD.Directory.miss_type_mach_latency_hist_seqr |     5607132     84.53%     84.53% |      561596      8.47%     92.99% |      335694      5.06%     98.05% |       67530      1.02%     99.07% |       45563      0.69%     99.76% |       12953      0.20%     99.95% |        1596      0.02%     99.98% |        1283      0.02%    100.00% |         141      0.00%    100.00% |           0      0.00%    100.00%
system.ruby.LD.Directory.miss_type_mach_latency_hist_seqr::total      6633488                      
system.ruby.ST.L1Cache.miss_type_mach_latency_hist_seqr::bucket_size            8                      
system.ruby.ST.L1Cache.miss_type_mach_latency_hist_seqr::max_bucket           79                      
system.ruby.ST.L1Cache.miss_type_mach_latency_hist_seqr::samples         4203                      
system.ruby.ST.L1Cache.miss_type_mach_latency_hist_seqr::mean    48.634071                      
system.ruby.ST.L1Cache.miss_type_mach_latency_hist_seqr::gmean    48.612270                      
system.ruby.ST.L1Cache.miss_type_mach_latency_hist_seqr::stdev     1.453156                      
system.ruby.ST.L1Cache.miss_type_mach_latency_hist_seqr |           0      0.00%      0.00% |           0      0.00%      0.00% |           0      0.00%      0.00% |           0      0.00%      0.00% |           0      0.00%      0.00% |         459     10.92%     10.92% |        3732     88.79%     99.71% |          12      0.29%    100.00% |           0      0.00%    100.00% |           0      0.00%    100.00%
system.ruby.ST.L1Cache.miss_type_mach_latency_hist_seqr::total         4203                      
system.ruby.ST.Directory.miss_type_mach_latency_hist_seqr::bucket_size          128                      
system.ruby.ST.Directory.miss_type_mach_latency_hist_seqr::max_bucket         1279                      
system.ruby.ST.Directory.miss_type_mach_latency_hist_seqr::samples      4167457                      
system.ruby.ST.Directory.miss_type_mach_latency_hist_seqr::mean   121.711410                      
system.ruby.ST.Directory.miss_type_mach_latency_hist_seqr::gmean   108.830919                      
system.ruby.ST.Directory.miss_type_mach_latency_hist_seqr::stdev    78.388254                      
system.ruby.ST.Directory.miss_type_mach_latency_hist_seqr |     3643787     87.43%     87.43% |      222479      5.34%     92.77% |      217556      5.22%     97.99% |       43403      1.04%     99.03% |       29998      0.72%     99.75% |        8303      0.20%     99.95% |         885      0.02%     99.97% |         926      0.02%    100.00% |         120      0.00%    100.00% |           0      0.00%    100.00%
system.ruby.ST.Directory.miss_type_mach_latency_hist_seqr::total      4167457                      
system.ruby.IFETCH.L1Cache.miss_type_mach_latency_hist_seqr::bucket_size           32                      
system.ruby.IFETCH.L1Cache.miss_type_mach_latency_hist_seqr::max_bucket          319                      
system.ruby.IFETCH.L1Cache.miss_type_mach_latency_hist_seqr::samples      1378003                      
system.ruby.IFETCH.L1Cache.miss_type_mach_latency_hist_seqr::mean    45.841625                      
system.ruby.IFETCH.L1Cache.miss_type_mach_latency_hist_seqr::gmean    45.811892                      
system.ruby.IFETCH.L1Cache.miss_type_mach_latency_hist_seqr::stdev     1.719296                      
system.ruby.IFETCH.L1Cache.miss_type_mach_latency_hist_seqr |           0      0.00%      0.00% |     1377965    100.00%    100.00% |          12      0.00%    100.00% |           8      0.00%    100.00% |          10      0.00%    100.00% |           6      0.00%    100.00% |           0      0.00%    100.00% |           2      0.00%    100.00% |           0      0.00%    100.00% |           0      0.00%    100.00%
system.ruby.IFETCH.L1Cache.miss_type_mach_latency_hist_seqr::total      1378003                      
system.ruby.IFETCH.Directory.miss_type_mach_latency_hist_seqr::bucket_size          128                      
system.ruby.IFETCH.Directory.miss_type_mach_latency_hist_seqr::max_bucket         1279                      
system.ruby.IFETCH.Directory.miss_type_mach_latency_hist_seqr::samples      5800058                      
system.ruby.IFETCH.Directory.miss_type_mach_latency_hist_seqr::mean   117.038299                      
system.ruby.IFETCH.Directory.miss_type_mach_latency_hist_seqr::gmean   102.346432                      
system.ruby.IFETCH.Directory.miss_type_mach_latency_hist_seqr::stdev    76.004821                      
system.ruby.IFETCH.Directory.miss_type_mach_latency_hist_seqr |     4844663     83.53%     83.53% |      596758     10.29%     93.82% |      277263      4.78%     98.60% |       30868      0.53%     99.13% |       37035      0.64%     99.77% |       10984      0.19%     99.96% |        1391      0.02%     99.98% |        1025      0.02%    100.00% |          71      0.00%    100.00% |           0      0.00%    100.00%
system.ruby.IFETCH.Directory.miss_type_mach_latency_hist_seqr::total      5800058                      
system.ruby.RMW_Read.L1Cache.miss_type_mach_latency_hist_seqr::bucket_size            8                      
system.ruby.RMW_Read.L1Cache.miss_type_mach_latency_hist_seqr::max_bucket           79                      
system.ruby.RMW_Read.L1Cache.miss_type_mach_latency_hist_seqr::samples         3304                      
system.ruby.RMW_Read.L1Cache.miss_type_mach_latency_hist_seqr::mean    47.640133                      
system.ruby.RMW_Read.L1Cache.miss_type_mach_latency_hist_seqr::gmean    47.599048                      
system.ruby.RMW_Read.L1Cache.miss_type_mach_latency_hist_seqr::stdev     1.971882                      
system.ruby.RMW_Read.L1Cache.miss_type_mach_latency_hist_seqr |           0      0.00%      0.00% |           0      0.00%      0.00% |           0      0.00%      0.00% |           0      0.00%      0.00% |           0      0.00%      0.00% |        1165     35.26%     35.26% |        2133     64.56%     99.82% |           6      0.18%    100.00% |           0      0.00%    100.00% |           0      0.00%    100.00%
system.ruby.RMW_Read.L1Cache.miss_type_mach_latency_hist_seqr::total         3304                      
system.ruby.RMW_Read.Directory.miss_type_mach_latency_hist_seqr::bucket_size          128                      
system.ruby.RMW_Read.Directory.miss_type_mach_latency_hist_seqr::max_bucket         1279                      
system.ruby.RMW_Read.Directory.miss_type_mach_latency_hist_seqr::samples        32434                      
system.ruby.RMW_Read.Directory.miss_type_mach_latency_hist_seqr::mean   135.990596                      
system.ruby.RMW_Read.Directory.miss_type_mach_latency_hist_seqr::gmean   121.960837                      
system.ruby.RMW_Read.Directory.miss_type_mach_latency_hist_seqr::stdev    79.103919                      
system.ruby.RMW_Read.Directory.miss_type_mach_latency_hist_seqr |       22866     70.50%     70.50% |        7205     22.21%     92.71% |        1842      5.68%     98.39% |         183      0.56%     98.96% |         224      0.69%     99.65% |          84      0.26%     99.91% |          14      0.04%     99.95% |          14      0.04%     99.99% |           2      0.01%    100.00% |           0      0.00%    100.00%
system.ruby.RMW_Read.Directory.miss_type_mach_latency_hist_seqr::total        32434                      
system.ruby.Locked_RMW_Read.L1Cache.miss_type_mach_latency_hist_seqr::bucket_size            8                      
system.ruby.Locked_RMW_Read.L1Cache.miss_type_mach_latency_hist_seqr::max_bucket           79                      
system.ruby.Locked_RMW_Read.L1Cache.miss_type_mach_latency_hist_seqr::samples         4760                      
system.ruby.Locked_RMW_Read.L1Cache.miss_type_mach_latency_hist_seqr::mean    47.143487                      
system.ruby.Locked_RMW_Read.L1Cache.miss_type_mach_latency_hist_seqr::gmean    47.100585                      
system.ruby.Locked_RMW_Read.L1Cache.miss_type_mach_latency_hist_seqr::stdev     2.009590                      
system.ruby.Locked_RMW_Read.L1Cache.miss_type_mach_latency_hist_seqr |           0      0.00%      0.00% |           0      0.00%      0.00% |           0      0.00%      0.00% |           0      0.00%      0.00% |           0      0.00%      0.00% |        2244     47.14%     47.14% |        2514     52.82%     99.96% |           2      0.04%    100.00% |           0      0.00%    100.00% |           0      0.00%    100.00%
system.ruby.Locked_RMW_Read.L1Cache.miss_type_mach_latency_hist_seqr::total         4760                      
system.ruby.Locked_RMW_Read.Directory.miss_type_mach_latency_hist_seqr::bucket_size          128                      
system.ruby.Locked_RMW_Read.Directory.miss_type_mach_latency_hist_seqr::max_bucket         1279                      
system.ruby.Locked_RMW_Read.Directory.miss_type_mach_latency_hist_seqr::samples        15877                      
system.ruby.Locked_RMW_Read.Directory.miss_type_mach_latency_hist_seqr::mean   152.944385                      
system.ruby.Locked_RMW_Read.Directory.miss_type_mach_latency_hist_seqr::gmean   142.499814                      
system.ruby.Locked_RMW_Read.Directory.miss_type_mach_latency_hist_seqr::stdev    73.506519                      
system.ruby.Locked_RMW_Read.Directory.miss_type_mach_latency_hist_seqr |        6060     38.17%     38.17% |        8645     54.45%     92.62% |         879      5.54%     98.15% |         106      0.67%     98.82% |         135      0.85%     99.67% |          47      0.30%     99.97% |           3      0.02%     99.99% |           2      0.01%    100.00% |           0      0.00%    100.00% |           0      0.00%    100.00%
system.ruby.Locked_RMW_Read.Directory.miss_type_mach_latency_hist_seqr::total        15877                      
system.ruby.Directory_Controller.GETX         9323197      0.00%      0.00%
system.ruby.Directory_Controller.PUTX         8411167      0.00%      0.00%
system.ruby.Directory_Controller.PUTX_NotOwner            4      0.00%      0.00%
system.ruby.Directory_Controller.DMA_READ           96      0.00%      0.00%
system.ruby.Directory_Controller.DMA_WRITE         3008      0.00%      0.00%
system.ruby.Directory_Controller.Memory_Data      8411310      0.00%      0.00%
system.ruby.Directory_Controller.Memory_Ack      8414175      0.00%      0.00%
system.ruby.Directory_Controller.I.GETX       8411223      0.00%      0.00%
system.ruby.Directory_Controller.I.DMA_READ           87      0.00%      0.00%
system.ruby.Directory_Controller.I.DMA_WRITE         3008      0.00%      0.00%
system.ruby.Directory_Controller.M.GETX        911692      0.00%      0.00%
system.ruby.Directory_Controller.M.PUTX       8411158      0.00%      0.00%
system.ruby.Directory_Controller.M.PUTX_NotOwner            4      0.00%      0.00%
system.ruby.Directory_Controller.M.DMA_READ            9      0.00%      0.00%
system.ruby.Directory_Controller.M_DRD.PUTX            9      0.00%      0.00%
system.ruby.Directory_Controller.M_DRDI.Memory_Ack            9      0.00%      0.00%
system.ruby.Directory_Controller.IM.GETX          271      0.00%      0.00%
system.ruby.Directory_Controller.IM.Memory_Data      8411223      0.00%      0.00%
system.ruby.Directory_Controller.MI.GETX           11      0.00%      0.00%
system.ruby.Directory_Controller.MI.Memory_Ack      8411158      0.00%      0.00%
system.ruby.Directory_Controller.ID.Memory_Data           87      0.00%      0.00%
system.ruby.Directory_Controller.ID_W.Memory_Ack         3008      0.00%      0.00%
system.ruby.DMA_Controller.ReadRequest   |          96    100.00%    100.00% |           0      0.00%    100.00%
system.ruby.DMA_Controller.ReadRequest::total           96                      
system.ruby.DMA_Controller.WriteRequest  |        3008    100.00%    100.00% |           0      0.00%    100.00%
system.ruby.DMA_Controller.WriteRequest::total         3008                      
system.ruby.DMA_Controller.Data          |          96    100.00%    100.00% |           0      0.00%    100.00%
system.ruby.DMA_Controller.Data::total             96                      
system.ruby.DMA_Controller.Ack           |        3008    100.00%    100.00% |           0      0.00%    100.00%
system.ruby.DMA_Controller.Ack::total            3008                      
system.ruby.DMA_Controller.READY.ReadRequest |          96    100.00%    100.00% |           0      0.00%    100.00%
system.ruby.DMA_Controller.READY.ReadRequest::total           96                      
system.ruby.DMA_Controller.READY.WriteRequest |        3008    100.00%    100.00% |           0      0.00%    100.00%
system.ruby.DMA_Controller.READY.WriteRequest::total         3008                      
system.ruby.DMA_Controller.BUSY_RD.Data  |          96    100.00%    100.00% |           0      0.00%    100.00%
system.ruby.DMA_Controller.BUSY_RD.Data::total           96                      
system.ruby.DMA_Controller.BUSY_WR.Ack   |        3008    100.00%    100.00% |           0      0.00%    100.00%
system.ruby.DMA_Controller.BUSY_WR.Ack::total         3008                      
system.ruby.L1Cache_Controller.Load      |   566549157     98.41%     98.41% |     1109098      0.19%     98.60% |     1832854      0.32%     98.92% |     6210787      1.08%    100.00%
system.ruby.L1Cache_Controller.Load::total    575701896                      
system.ruby.L1Cache_Controller.Ifetch    |18446744072222343168    100.00%    100.00% |     5028828      0.00%    100.00% |     9394408      0.00%    100.00% |    30150659      0.00%    100.00%
system.ruby.L1Cache_Controller.Ifetch::total 18446744072266915840                      
system.ruby.L1Cache_Controller.Store     |   172447328     97.34%     97.34% |      802027      0.45%     97.80% |     1362548      0.77%     98.56% |     2543291      1.44%    100.00%
system.ruby.L1Cache_Controller.Store::total    177155194                      
system.ruby.L1Cache_Controller.Data      |     8164117     87.57%     87.57% |      321745      3.45%     91.02% |      397524      4.26%     95.29% |      439529      4.71%    100.00%
system.ruby.L1Cache_Controller.Data::total      9322915                      
system.ruby.L1Cache_Controller.Fwd_GETX  |      120056     13.17%     13.17% |      265840     29.16%     42.33% |      254185     27.88%     70.21% |      271611     29.79%    100.00%
system.ruby.L1Cache_Controller.Fwd_GETX::total       911692                      
system.ruby.L1Cache_Controller.Inv       |           0      0.00%      0.00% |           8     44.44%     44.44% |           6     33.33%     77.78% |           4     22.22%    100.00%
system.ruby.L1Cache_Controller.Inv::total           18                      
system.ruby.L1Cache_Controller.Replacement |     8108941     94.84%     94.84% |       78806      0.92%     95.76% |      168246      1.97%     97.73% |      193967      2.27%    100.00%
system.ruby.L1Cache_Controller.Replacement::total      8549960                      
system.ruby.L1Cache_Controller.Writeback_Ack |     8043260     95.63%     95.63% |       56168      0.67%     96.29% |      143169      1.70%     98.00% |      168570      2.00%    100.00%
system.ruby.L1Cache_Controller.Writeback_Ack::total      8411167                      
system.ruby.L1Cache_Controller.Writeback_Nack |           3     75.00%     75.00% |           1     25.00%    100.00% |           0      0.00%    100.00% |           0      0.00%    100.00%
system.ruby.L1Cache_Controller.Writeback_Nack::total            4                      
system.ruby.L1Cache_Controller.I.Load    |     3211681     91.39%     91.39% |       72818      2.07%     93.46% |      108983      3.10%     96.56% |      120803      3.44%    100.00%
system.ruby.L1Cache_Controller.I.Load::total      3514285                      
system.ruby.L1Cache_Controller.I.Ifetch  |     2895822     78.83%     78.83% |      239163      6.51%     85.34% |      264777      7.21%     92.54% |      273971      7.46%    100.00%
system.ruby.L1Cache_Controller.I.Ifetch::total      3673733                      
system.ruby.L1Cache_Controller.I.Store   |     2056614     96.33%     96.33% |        9764      0.46%     96.79% |       23764      1.11%     97.90% |       44755      2.10%    100.00%
system.ruby.L1Cache_Controller.I.Store::total      2134897                      
system.ruby.L1Cache_Controller.I.Replacement |       65678     47.32%     47.32% |       22641     16.31%     63.63% |       25080     18.07%     81.70% |       25399     18.30%    100.00%
system.ruby.L1Cache_Controller.I.Replacement::total       138798                      
system.ruby.L1Cache_Controller.II.Writeback_Nack |           3     75.00%     75.00% |           1     25.00%    100.00% |           0      0.00%    100.00% |           0      0.00%    100.00%
system.ruby.L1Cache_Controller.II.Writeback_Nack::total            4                      
system.ruby.L1Cache_Controller.M.Load    |   563337476     98.45%     98.45% |     1036280      0.18%     98.63% |     1723871      0.30%     98.94% |     6089984      1.06%    100.00%
system.ruby.L1Cache_Controller.M.Load::total    572187611                      
system.ruby.L1Cache_Controller.M.Ifetch  |18446744072219447296    100.00%    100.00% |     4789665      0.00%    100.00% |     9129631      0.00%    100.00% |    29876688      0.00%    100.00%
system.ruby.L1Cache_Controller.M.Ifetch::total 18446744072263243776                      
system.ruby.L1Cache_Controller.M.Store   |   170390714     97.35%     97.35% |      792263      0.45%     97.81% |     1338784      0.76%     98.57% |     2498536      1.43%    100.00%
system.ruby.L1Cache_Controller.M.Store::total    175020297                      
system.ruby.L1Cache_Controller.M.Fwd_GETX |      120053     13.17%     13.17% |      265839     29.16%     42.33% |      254185     27.88%     70.21% |      271611     29.79%    100.00%
system.ruby.L1Cache_Controller.M.Fwd_GETX::total       911688                      
system.ruby.L1Cache_Controller.M.Inv     |           0      0.00%      0.00% |           4     44.44%     44.44% |           3     33.33%     77.78% |           2     22.22%    100.00%
system.ruby.L1Cache_Controller.M.Inv::total            9                      
system.ruby.L1Cache_Controller.M.Replacement |     8043263     95.63%     95.63% |       56165      0.67%     96.29% |      143166      1.70%     98.00% |      168568      2.00%    100.00%
system.ruby.L1Cache_Controller.M.Replacement::total      8411162                      
system.ruby.L1Cache_Controller.MI.Fwd_GETX |           3     75.00%     75.00% |           1     25.00%    100.00% |           0      0.00%    100.00% |           0      0.00%    100.00%
system.ruby.L1Cache_Controller.MI.Fwd_GETX::total            4                      
system.ruby.L1Cache_Controller.MI.Inv    |           0      0.00%      0.00% |           4     44.44%     44.44% |           3     33.33%     77.78% |           2     22.22%    100.00%
system.ruby.L1Cache_Controller.MI.Inv::total            9                      
system.ruby.L1Cache_Controller.MI.Writeback_Ack |     8043260     95.63%     95.63% |       56168      0.67%     96.29% |      143169      1.70%     98.00% |      168570      2.00%    100.00%
system.ruby.L1Cache_Controller.MI.Writeback_Ack::total      8411167                      
system.ruby.L1Cache_Controller.IS.Data   |     6107503     84.97%     84.97% |      311981      4.34%     89.31% |      373760      5.20%     94.51% |      394774      5.49%    100.00%
system.ruby.L1Cache_Controller.IS.Data::total      7188018                      
system.ruby.L1Cache_Controller.IM.Data   |     2056614     96.33%     96.33% |        9764      0.46%     96.79% |       23764      1.11%     97.90% |       44755      2.10%    100.00%
system.ruby.L1Cache_Controller.IM.Data::total      2134897                      

---------- End Simulation Statistics   ----------
