
---------- Begin Simulation Statistics ----------
sim_seconds                                  3.941373                       # Number of seconds simulated
sim_ticks                                3941373422500                       # Number of ticks simulated
final_tick                               56132767074001                       # Number of ticks from beginning of simulation (restored from checkpoints and never reset)
sim_freq                                 1000000000000                       # Frequency of simulated ticks
host_inst_rate                                 158696                       # Simulator instruction rate (inst/s)
host_op_rate                                   222490                       # Simulator op (including micro ops) rate (op/s)
host_tick_rate                              277906368                       # Simulator tick rate (ticks/s)
host_mem_usage                                1815560                       # Number of bytes of host memory used
host_seconds                                 14182.38                       # Real time elapsed on the host
sim_insts                                  2250685294                       # Number of instructions simulated
sim_ops                                    3155436745                       # Number of ops (including micro ops) simulated
system.voltage_domain.voltage                       1                       # Voltage in Volts
system.clk_domain.clock                          1000                       # Clock period in ticks
system.mem_ctrls.bytes_read::ruby.dir_cntrl0    113115904                       # Number of bytes read from this memory
system.mem_ctrls.bytes_read::total          113115904                       # Number of bytes read from this memory
system.mem_ctrls.bytes_written::ruby.dir_cntrl0     56899264                       # Number of bytes written to this memory
system.mem_ctrls.bytes_written::total        56899264                       # Number of bytes written to this memory
system.mem_ctrls.num_reads::ruby.dir_cntrl0      1767436                       # Number of read requests responded to by this memory
system.mem_ctrls.num_reads::total             1767436                       # Number of read requests responded to by this memory
system.mem_ctrls.num_writes::ruby.dir_cntrl0       889051                       # Number of write requests responded to by this memory
system.mem_ctrls.num_writes::total             889051                       # Number of write requests responded to by this memory
system.mem_ctrls.bw_read::ruby.dir_cntrl0     28699616                       # Total read bandwidth from this memory (bytes/s)
system.mem_ctrls.bw_read::total              28699616                       # Total read bandwidth from this memory (bytes/s)
system.mem_ctrls.bw_write::ruby.dir_cntrl0     14436405                       # Write bandwidth from this memory (bytes/s)
system.mem_ctrls.bw_write::total             14436405                       # Write bandwidth from this memory (bytes/s)
system.mem_ctrls.bw_total::ruby.dir_cntrl0     43136021                       # Total bandwidth to/from this memory (bytes/s)
system.mem_ctrls.bw_total::total             43136021                       # Total bandwidth to/from this memory (bytes/s)
system.mem_ctrls.readReqs                     1767436                       # Number of read requests accepted
system.mem_ctrls.writeReqs                     889051                       # Number of write requests accepted
system.mem_ctrls.readBursts                   1767436                       # Number of DRAM read bursts, including those serviced by the write queue
system.mem_ctrls.writeBursts                   889051                       # Number of DRAM write bursts, including those merged in the write queue
system.mem_ctrls.bytesReadDRAM              112950336                       # Total number of bytes read from DRAM
system.mem_ctrls.bytesReadWrQ                  165568                       # Total number of bytes read from write queue
system.mem_ctrls.bytesWritten                56899264                       # Total number of bytes written to DRAM
system.mem_ctrls.bytesReadSys               113115904                       # Total read bytes from the system interface side
system.mem_ctrls.bytesWrittenSys             56899264                       # Total written bytes from the system interface side
system.mem_ctrls.servicedByWrQ                   2587                       # Number of DRAM read bursts serviced by the write queue
system.mem_ctrls.mergedWrBursts                    11                       # Number of DRAM write bursts merged with an existing one
system.mem_ctrls.neitherReadNorWriteReqs            0                       # Number of requests that are neither read nor write
system.mem_ctrls.perBankRdBursts::0            118271                       # Per bank write bursts
system.mem_ctrls.perBankRdBursts::1            126044                       # Per bank write bursts
system.mem_ctrls.perBankRdBursts::2            104227                       # Per bank write bursts
system.mem_ctrls.perBankRdBursts::3            104088                       # Per bank write bursts
system.mem_ctrls.perBankRdBursts::4            105940                       # Per bank write bursts
system.mem_ctrls.perBankRdBursts::5            103236                       # Per bank write bursts
system.mem_ctrls.perBankRdBursts::6            113580                       # Per bank write bursts
system.mem_ctrls.perBankRdBursts::7            105357                       # Per bank write bursts
system.mem_ctrls.perBankRdBursts::8            111080                       # Per bank write bursts
system.mem_ctrls.perBankRdBursts::9            107607                       # Per bank write bursts
system.mem_ctrls.perBankRdBursts::10           104533                       # Per bank write bursts
system.mem_ctrls.perBankRdBursts::11           104504                       # Per bank write bursts
system.mem_ctrls.perBankRdBursts::12           106336                       # Per bank write bursts
system.mem_ctrls.perBankRdBursts::13           110404                       # Per bank write bursts
system.mem_ctrls.perBankRdBursts::14           122975                       # Per bank write bursts
system.mem_ctrls.perBankRdBursts::15           116667                       # Per bank write bursts
system.mem_ctrls.perBankWrBursts::0             58482                       # Per bank write bursts
system.mem_ctrls.perBankWrBursts::1             66732                       # Per bank write bursts
system.mem_ctrls.perBankWrBursts::2             52760                       # Per bank write bursts
system.mem_ctrls.perBankWrBursts::3             51822                       # Per bank write bursts
system.mem_ctrls.perBankWrBursts::4             52335                       # Per bank write bursts
system.mem_ctrls.perBankWrBursts::5             53327                       # Per bank write bursts
system.mem_ctrls.perBankWrBursts::6             58000                       # Per bank write bursts
system.mem_ctrls.perBankWrBursts::7             53417                       # Per bank write bursts
system.mem_ctrls.perBankWrBursts::8             56100                       # Per bank write bursts
system.mem_ctrls.perBankWrBursts::9             53890                       # Per bank write bursts
system.mem_ctrls.perBankWrBursts::10            52640                       # Per bank write bursts
system.mem_ctrls.perBankWrBursts::11            51706                       # Per bank write bursts
system.mem_ctrls.perBankWrBursts::12            54134                       # Per bank write bursts
system.mem_ctrls.perBankWrBursts::13            55992                       # Per bank write bursts
system.mem_ctrls.perBankWrBursts::14            59596                       # Per bank write bursts
system.mem_ctrls.perBankWrBursts::15            58118                       # Per bank write bursts
system.mem_ctrls.numRdRetry                         0                       # Number of times read queue was full causing retry
system.mem_ctrls.numWrRetry                         0                       # Number of times write queue was full causing retry
system.mem_ctrls.totGap                  3941373367500                       # Total gap between requests
system.mem_ctrls.readPktSize::0                     0                       # Read request sizes (log2)
system.mem_ctrls.readPktSize::1                     0                       # Read request sizes (log2)
system.mem_ctrls.readPktSize::2                     0                       # Read request sizes (log2)
system.mem_ctrls.readPktSize::3                     0                       # Read request sizes (log2)
system.mem_ctrls.readPktSize::4                     0                       # Read request sizes (log2)
system.mem_ctrls.readPktSize::5                     0                       # Read request sizes (log2)
system.mem_ctrls.readPktSize::6               1767436                       # Read request sizes (log2)
system.mem_ctrls.writePktSize::0                    0                       # Write request sizes (log2)
system.mem_ctrls.writePktSize::1                    0                       # Write request sizes (log2)
system.mem_ctrls.writePktSize::2                    0                       # Write request sizes (log2)
system.mem_ctrls.writePktSize::3                    0                       # Write request sizes (log2)
system.mem_ctrls.writePktSize::4                    0                       # Write request sizes (log2)
system.mem_ctrls.writePktSize::5                    0                       # Write request sizes (log2)
system.mem_ctrls.writePktSize::6               889051                       # Write request sizes (log2)
system.mem_ctrls.rdQLenPdf::0                 1757859                       # What read queue length does an incoming req see
system.mem_ctrls.rdQLenPdf::1                    6974                       # What read queue length does an incoming req see
system.mem_ctrls.rdQLenPdf::2                      16                       # What read queue length does an incoming req see
system.mem_ctrls.rdQLenPdf::3                       0                       # What read queue length does an incoming req see
system.mem_ctrls.rdQLenPdf::4                       0                       # What read queue length does an incoming req see
system.mem_ctrls.rdQLenPdf::5                       0                       # What read queue length does an incoming req see
system.mem_ctrls.rdQLenPdf::6                       0                       # What read queue length does an incoming req see
system.mem_ctrls.rdQLenPdf::7                       0                       # What read queue length does an incoming req see
system.mem_ctrls.rdQLenPdf::8                       0                       # What read queue length does an incoming req see
system.mem_ctrls.rdQLenPdf::9                       0                       # What read queue length does an incoming req see
system.mem_ctrls.rdQLenPdf::10                      0                       # What read queue length does an incoming req see
system.mem_ctrls.rdQLenPdf::11                      0                       # What read queue length does an incoming req see
system.mem_ctrls.rdQLenPdf::12                      0                       # What read queue length does an incoming req see
system.mem_ctrls.rdQLenPdf::13                      0                       # What read queue length does an incoming req see
system.mem_ctrls.rdQLenPdf::14                      0                       # What read queue length does an incoming req see
system.mem_ctrls.rdQLenPdf::15                      0                       # What read queue length does an incoming req see
system.mem_ctrls.rdQLenPdf::16                      0                       # What read queue length does an incoming req see
system.mem_ctrls.rdQLenPdf::17                      0                       # What read queue length does an incoming req see
system.mem_ctrls.rdQLenPdf::18                      0                       # What read queue length does an incoming req see
system.mem_ctrls.rdQLenPdf::19                      0                       # What read queue length does an incoming req see
system.mem_ctrls.rdQLenPdf::20                      0                       # What read queue length does an incoming req see
system.mem_ctrls.rdQLenPdf::21                      0                       # What read queue length does an incoming req see
system.mem_ctrls.rdQLenPdf::22                      0                       # What read queue length does an incoming req see
system.mem_ctrls.rdQLenPdf::23                      0                       # What read queue length does an incoming req see
system.mem_ctrls.rdQLenPdf::24                      0                       # What read queue length does an incoming req see
system.mem_ctrls.rdQLenPdf::25                      0                       # What read queue length does an incoming req see
system.mem_ctrls.rdQLenPdf::26                      0                       # What read queue length does an incoming req see
system.mem_ctrls.rdQLenPdf::27                      0                       # What read queue length does an incoming req see
system.mem_ctrls.rdQLenPdf::28                      0                       # What read queue length does an incoming req see
system.mem_ctrls.rdQLenPdf::29                      0                       # What read queue length does an incoming req see
system.mem_ctrls.rdQLenPdf::30                      0                       # What read queue length does an incoming req see
system.mem_ctrls.rdQLenPdf::31                      0                       # What read queue length does an incoming req see
system.mem_ctrls.wrQLenPdf::0                       0                       # What write queue length does an incoming req see
system.mem_ctrls.wrQLenPdf::1                       0                       # What write queue length does an incoming req see
system.mem_ctrls.wrQLenPdf::2                       0                       # What write queue length does an incoming req see
system.mem_ctrls.wrQLenPdf::3                       0                       # What write queue length does an incoming req see
system.mem_ctrls.wrQLenPdf::4                       0                       # What write queue length does an incoming req see
system.mem_ctrls.wrQLenPdf::5                       0                       # What write queue length does an incoming req see
system.mem_ctrls.wrQLenPdf::6                       0                       # What write queue length does an incoming req see
system.mem_ctrls.wrQLenPdf::7                       0                       # What write queue length does an incoming req see
system.mem_ctrls.wrQLenPdf::8                       0                       # What write queue length does an incoming req see
system.mem_ctrls.wrQLenPdf::9                       0                       # What write queue length does an incoming req see
system.mem_ctrls.wrQLenPdf::10                      0                       # What write queue length does an incoming req see
system.mem_ctrls.wrQLenPdf::11                      0                       # What write queue length does an incoming req see
system.mem_ctrls.wrQLenPdf::12                      0                       # What write queue length does an incoming req see
system.mem_ctrls.wrQLenPdf::13                      0                       # What write queue length does an incoming req see
system.mem_ctrls.wrQLenPdf::14                      0                       # What write queue length does an incoming req see
system.mem_ctrls.wrQLenPdf::15                   1516                       # What write queue length does an incoming req see
system.mem_ctrls.wrQLenPdf::16                   1672                       # What write queue length does an incoming req see
system.mem_ctrls.wrQLenPdf::17                  54624                       # What write queue length does an incoming req see
system.mem_ctrls.wrQLenPdf::18                  55336                       # What write queue length does an incoming req see
system.mem_ctrls.wrQLenPdf::19                  55380                       # What write queue length does an incoming req see
system.mem_ctrls.wrQLenPdf::20                  55424                       # What write queue length does an incoming req see
system.mem_ctrls.wrQLenPdf::21                  55456                       # What write queue length does an incoming req see
system.mem_ctrls.wrQLenPdf::22                  55439                       # What write queue length does an incoming req see
system.mem_ctrls.wrQLenPdf::23                  55453                       # What write queue length does an incoming req see
system.mem_ctrls.wrQLenPdf::24                  55435                       # What write queue length does an incoming req see
system.mem_ctrls.wrQLenPdf::25                  55417                       # What write queue length does an incoming req see
system.mem_ctrls.wrQLenPdf::26                  55450                       # What write queue length does an incoming req see
system.mem_ctrls.wrQLenPdf::27                  55421                       # What write queue length does an incoming req see
system.mem_ctrls.wrQLenPdf::28                  55407                       # What write queue length does an incoming req see
system.mem_ctrls.wrQLenPdf::29                  55422                       # What write queue length does an incoming req see
system.mem_ctrls.wrQLenPdf::30                  55388                       # What write queue length does an incoming req see
system.mem_ctrls.wrQLenPdf::31                  55375                       # What write queue length does an incoming req see
system.mem_ctrls.wrQLenPdf::32                  55379                       # What write queue length does an incoming req see
system.mem_ctrls.wrQLenPdf::33                     16                       # What write queue length does an incoming req see
system.mem_ctrls.wrQLenPdf::34                      7                       # What write queue length does an incoming req see
system.mem_ctrls.wrQLenPdf::35                      3                       # What write queue length does an incoming req see
system.mem_ctrls.wrQLenPdf::36                      5                       # What write queue length does an incoming req see
system.mem_ctrls.wrQLenPdf::37                      5                       # What write queue length does an incoming req see
system.mem_ctrls.wrQLenPdf::38                      3                       # What write queue length does an incoming req see
system.mem_ctrls.wrQLenPdf::39                      2                       # What write queue length does an incoming req see
system.mem_ctrls.wrQLenPdf::40                      1                       # What write queue length does an incoming req see
system.mem_ctrls.wrQLenPdf::41                      1                       # What write queue length does an incoming req see
system.mem_ctrls.wrQLenPdf::42                      2                       # What write queue length does an incoming req see
system.mem_ctrls.wrQLenPdf::43                      1                       # What write queue length does an incoming req see
system.mem_ctrls.wrQLenPdf::44                      0                       # What write queue length does an incoming req see
system.mem_ctrls.wrQLenPdf::45                      0                       # What write queue length does an incoming req see
system.mem_ctrls.wrQLenPdf::46                      0                       # What write queue length does an incoming req see
system.mem_ctrls.wrQLenPdf::47                      0                       # What write queue length does an incoming req see
system.mem_ctrls.wrQLenPdf::48                      0                       # What write queue length does an incoming req see
system.mem_ctrls.wrQLenPdf::49                      0                       # What write queue length does an incoming req see
system.mem_ctrls.wrQLenPdf::50                      0                       # What write queue length does an incoming req see
system.mem_ctrls.wrQLenPdf::51                      0                       # What write queue length does an incoming req see
system.mem_ctrls.wrQLenPdf::52                      0                       # What write queue length does an incoming req see
system.mem_ctrls.wrQLenPdf::53                      0                       # What write queue length does an incoming req see
system.mem_ctrls.wrQLenPdf::54                      0                       # What write queue length does an incoming req see
system.mem_ctrls.wrQLenPdf::55                      0                       # What write queue length does an incoming req see
system.mem_ctrls.wrQLenPdf::56                      0                       # What write queue length does an incoming req see
system.mem_ctrls.wrQLenPdf::57                      0                       # What write queue length does an incoming req see
system.mem_ctrls.wrQLenPdf::58                      0                       # What write queue length does an incoming req see
system.mem_ctrls.wrQLenPdf::59                      0                       # What write queue length does an incoming req see
system.mem_ctrls.wrQLenPdf::60                      0                       # What write queue length does an incoming req see
system.mem_ctrls.wrQLenPdf::61                      0                       # What write queue length does an incoming req see
system.mem_ctrls.wrQLenPdf::62                      0                       # What write queue length does an incoming req see
system.mem_ctrls.wrQLenPdf::63                      0                       # What write queue length does an incoming req see
system.mem_ctrls.bytesPerActivate::samples      1534720                       # Bytes accessed per row activation
system.mem_ctrls.bytesPerActivate::mean    110.671143                       # Bytes accessed per row activation
system.mem_ctrls.bytesPerActivate::gmean    86.419095                       # Bytes accessed per row activation
system.mem_ctrls.bytesPerActivate::stdev   131.823985                       # Bytes accessed per row activation
system.mem_ctrls.bytesPerActivate::0-127      1091749     71.14%     71.14% # Bytes accessed per row activation
system.mem_ctrls.bytesPerActivate::128-255       340684     22.20%     93.34% # Bytes accessed per row activation
system.mem_ctrls.bytesPerActivate::256-383        41460      2.70%     96.04% # Bytes accessed per row activation
system.mem_ctrls.bytesPerActivate::384-511        17345      1.13%     97.17% # Bytes accessed per row activation
system.mem_ctrls.bytesPerActivate::512-639        11921      0.78%     97.94% # Bytes accessed per row activation
system.mem_ctrls.bytesPerActivate::640-767         9374      0.61%     98.55% # Bytes accessed per row activation
system.mem_ctrls.bytesPerActivate::768-895         5429      0.35%     98.91% # Bytes accessed per row activation
system.mem_ctrls.bytesPerActivate::896-1023         3777      0.25%     99.15% # Bytes accessed per row activation
system.mem_ctrls.bytesPerActivate::1024-1151        12981      0.85%    100.00% # Bytes accessed per row activation
system.mem_ctrls.bytesPerActivate::total      1534720                       # Bytes accessed per row activation
system.mem_ctrls.rdPerTurnAround::samples        55359                       # Reads before turning the bus around for writes
system.mem_ctrls.rdPerTurnAround::mean      31.881844                       # Reads before turning the bus around for writes
system.mem_ctrls.rdPerTurnAround::gmean     29.776303                       # Reads before turning the bus around for writes
system.mem_ctrls.rdPerTurnAround::stdev     13.299655                       # Reads before turning the bus around for writes
system.mem_ctrls.rdPerTurnAround::0-31          29688     53.63%     53.63% # Reads before turning the bus around for writes
system.mem_ctrls.rdPerTurnAround::32-63         24805     44.81%     98.44% # Reads before turning the bus around for writes
system.mem_ctrls.rdPerTurnAround::64-95           773      1.40%     99.83% # Reads before turning the bus around for writes
system.mem_ctrls.rdPerTurnAround::96-127           50      0.09%     99.92% # Reads before turning the bus around for writes
system.mem_ctrls.rdPerTurnAround::128-159           11      0.02%     99.94% # Reads before turning the bus around for writes
system.mem_ctrls.rdPerTurnAround::160-191            9      0.02%     99.96% # Reads before turning the bus around for writes
system.mem_ctrls.rdPerTurnAround::192-223            9      0.02%     99.97% # Reads before turning the bus around for writes
system.mem_ctrls.rdPerTurnAround::224-255            4      0.01%     99.98% # Reads before turning the bus around for writes
system.mem_ctrls.rdPerTurnAround::256-287            2      0.00%     99.99% # Reads before turning the bus around for writes
system.mem_ctrls.rdPerTurnAround::320-351            2      0.00%     99.99% # Reads before turning the bus around for writes
system.mem_ctrls.rdPerTurnAround::352-383            2      0.00%     99.99% # Reads before turning the bus around for writes
system.mem_ctrls.rdPerTurnAround::384-415            1      0.00%     99.99% # Reads before turning the bus around for writes
system.mem_ctrls.rdPerTurnAround::416-447            1      0.00%    100.00% # Reads before turning the bus around for writes
system.mem_ctrls.rdPerTurnAround::480-511            1      0.00%    100.00% # Reads before turning the bus around for writes
system.mem_ctrls.rdPerTurnAround::768-799            1      0.00%    100.00% # Reads before turning the bus around for writes
system.mem_ctrls.rdPerTurnAround::total         55359                       # Reads before turning the bus around for writes
system.mem_ctrls.wrPerTurnAround::samples        55359                       # Writes before turning the bus around for reads
system.mem_ctrls.wrPerTurnAround::mean      16.059737                       # Writes before turning the bus around for reads
system.mem_ctrls.wrPerTurnAround::gmean     16.056391                       # Writes before turning the bus around for reads
system.mem_ctrls.wrPerTurnAround::stdev      0.340692                       # Writes before turning the bus around for reads
system.mem_ctrls.wrPerTurnAround::16            53661     96.93%     96.93% # Writes before turning the bus around for reads
system.mem_ctrls.wrPerTurnAround::17              120      0.22%     97.15% # Writes before turning the bus around for reads
system.mem_ctrls.wrPerTurnAround::18             1559      2.82%     99.97% # Writes before turning the bus around for reads
system.mem_ctrls.wrPerTurnAround::19               12      0.02%     99.99% # Writes before turning the bus around for reads
system.mem_ctrls.wrPerTurnAround::20                3      0.01%     99.99% # Writes before turning the bus around for reads
system.mem_ctrls.wrPerTurnAround::21                3      0.01%    100.00% # Writes before turning the bus around for reads
system.mem_ctrls.wrPerTurnAround::22                1      0.00%    100.00% # Writes before turning the bus around for reads
system.mem_ctrls.wrPerTurnAround::total         55359                       # Writes before turning the bus around for reads
system.mem_ctrls.totQLat                  30227246830                       # Total ticks spent queuing
system.mem_ctrls.totMemAccLat             63318165580                       # Total ticks spent from burst creation until serviced by the DRAM
system.mem_ctrls.totBusLat                 8824245000                       # Total ticks spent in databus transfers
system.mem_ctrls.avgQLat                     17127.38                       # Average queueing delay per DRAM burst
system.mem_ctrls.avgBusLat                    5000.00                       # Average bus latency per DRAM burst
system.mem_ctrls.avgMemAccLat                35877.38                       # Average memory access latency per DRAM burst
system.mem_ctrls.avgRdBW                        28.66                       # Average DRAM read bandwidth in MiByte/s
system.mem_ctrls.avgWrBW                        14.44                       # Average achieved write bandwidth in MiByte/s
system.mem_ctrls.avgRdBWSys                     28.70                       # Average system read bandwidth in MiByte/s
system.mem_ctrls.avgWrBWSys                     14.44                       # Average system write bandwidth in MiByte/s
system.mem_ctrls.peakBW                      12800.00                       # Theoretical peak bandwidth in MiByte/s
system.mem_ctrls.busUtil                         0.34                       # Data bus utilization in percentage
system.mem_ctrls.busUtilRead                     0.22                       # Data bus utilization in percentage for reads
system.mem_ctrls.busUtilWrite                    0.11                       # Data bus utilization in percentage for writes
system.mem_ctrls.avgRdQLen                       1.00                       # Average read queue length when enqueuing
system.mem_ctrls.avgWrQLen                      25.44                       # Average write queue length when enqueuing
system.mem_ctrls.readRowHits                   864598                       # Number of row buffer hits during reads
system.mem_ctrls.writeRowHits                  254577                       # Number of row buffer hits during writes
system.mem_ctrls.readRowHitRate                 48.99                       # Row buffer hit rate for reads
system.mem_ctrls.writeRowHitRate                28.64                       # Row buffer hit rate for writes
system.mem_ctrls.avgGap                    1483678.77                       # Average gap between requests
system.mem_ctrls.pageHitRate                    42.17                       # Row buffer hit rate, read and write combined
system.mem_ctrls_0.actEnergy               5793091920                       # Energy for activate commands per rank (pJ)
system.mem_ctrls_0.preEnergy               3160913250                       # Energy for precharge commands per rank (pJ)
system.mem_ctrls_0.readEnergy              6932320200                       # Energy for read commands per rank (pJ)
system.mem_ctrls_0.writeEnergy             2896404480                       # Energy for write commands per rank (pJ)
system.mem_ctrls_0.refreshEnergy         257662941120                       # Energy for refresh commands per rank (pJ)
system.mem_ctrls_0.actBackEnergy         499042409715                       # Energy for active background per rank (pJ)
system.mem_ctrls_0.preBackEnergy         1929195137250                       # Energy for precharge background per rank (pJ)
system.mem_ctrls_0.totalEnergy           2704683217935                       # Total energy per rank (pJ)
system.mem_ctrls_0.averagePower            685.611782                       # Core power per rank (mW)
system.mem_ctrls_0.memoryStateTime::IDLE 3205217451250                       # Time in different power states
system.mem_ctrls_0.memoryStateTime::REF  131611220000                       # Time in different power states
system.mem_ctrls_0.memoryStateTime::PRE_PDN            0                       # Time in different power states
system.mem_ctrls_0.memoryStateTime::ACT  604544561500                       # Time in different power states
system.mem_ctrls_0.memoryStateTime::ACT_PDN            0                       # Time in different power states
system.mem_ctrls_1.actEnergy               5840984520                       # Energy for activate commands per rank (pJ)
system.mem_ctrls_1.preEnergy               3187045125                       # Energy for precharge commands per rank (pJ)
system.mem_ctrls_1.readEnergy              6954433200                       # Energy for read commands per rank (pJ)
system.mem_ctrls_1.writeEnergy             2866745520                       # Energy for write commands per rank (pJ)
system.mem_ctrls_1.refreshEnergy         257662941120                       # Energy for refresh commands per rank (pJ)
system.mem_ctrls_1.actBackEnergy         502818393240                       # Energy for active background per rank (pJ)
system.mem_ctrls_1.preBackEnergy         1925882871000                       # Energy for precharge background per rank (pJ)
system.mem_ctrls_1.totalEnergy           2705213413725                       # Total energy per rank (pJ)
system.mem_ctrls_1.averagePower            685.746182                       # Core power per rank (mW)
system.mem_ctrls_1.memoryStateTime::IDLE 3199846690250                       # Time in different power states
system.mem_ctrls_1.memoryStateTime::REF  131611220000                       # Time in different power states
system.mem_ctrls_1.memoryStateTime::PRE_PDN            0                       # Time in different power states
system.mem_ctrls_1.memoryStateTime::ACT  609919757250                       # Time in different power states
system.mem_ctrls_1.memoryStateTime::ACT_PDN            0                       # Time in different power states
system.cpu_voltage_domain.voltage                   1                       # Voltage in Volts
system.cpu_clk_domain.clock                       500                       # Clock period in ticks
system.cpu0.apic_clk_domain.clock                8000                       # Clock period in ticks
system.cpu0.numCycles                      7887525823                       # number of cpu cycles simulated
system.cpu0.numWorkItemsStarted                     0                       # number of work items this cpu started
system.cpu0.numWorkItemsCompleted                   0                       # number of work items this cpu completed
system.cpu0.kern.inst.arm                           0                       # number of arm instructions executed
system.cpu0.kern.inst.quiesce                       0                       # number of quiesce instructions executed
system.cpu0.committedInsts                    3236403                       # Number of instructions committed
system.cpu0.committedOps                      7033098                       # Number of ops (including micro ops) committed
system.cpu0.num_int_alu_accesses              6881876                       # Number of integer alu accesses
system.cpu0.num_fp_alu_accesses                    39                       # Number of float alu accesses
system.cpu0.num_func_calls                     206746                       # number of times a function call or return occured
system.cpu0.num_conditional_control_insts       468822                       # number of instructions that are conditional controls
system.cpu0.num_int_insts                     6881876                       # number of integer instructions
system.cpu0.num_fp_insts                           39                       # number of float instructions
system.cpu0.num_int_register_reads           13981794                       # number of times the integer registers were read
system.cpu0.num_int_register_writes           5699177                       # number of times the integer registers were written
system.cpu0.num_fp_register_reads                  63                       # number of times the floating registers were read
system.cpu0.num_fp_register_writes                 31                       # number of times the floating registers were written
system.cpu0.num_cc_register_reads             3896408                       # number of times the CC registers were read
system.cpu0.num_cc_register_writes            2109861                       # number of times the CC registers were written
system.cpu0.num_mem_refs                      1658788                       # number of memory refs
system.cpu0.num_load_insts                    1023078                       # Number of load instructions
system.cpu0.num_store_insts                    635710                       # Number of store instructions
system.cpu0.num_idle_cycles              7871498785.370057                       # Number of idle cycles
system.cpu0.num_busy_cycles              16027037.629943                       # Number of busy cycles
system.cpu0.not_idle_fraction                0.002032                       # Percentage of non-idle cycles
system.cpu0.idle_fraction                    0.997968                       # Percentage of idle cycles
system.cpu0.Branches                           738475                       # Number of branches fetched
system.cpu0.op_class::No_OpClass               121853      1.73%      1.73% # Class of executed instruction
system.cpu0.op_class::IntAlu                  5198164     73.91%     75.64% # Class of executed instruction
system.cpu0.op_class::IntMult                   13406      0.19%     75.83% # Class of executed instruction
system.cpu0.op_class::IntDiv                    40879      0.58%     76.41% # Class of executed instruction
system.cpu0.op_class::FloatAdd                     30      0.00%     76.41% # Class of executed instruction
system.cpu0.op_class::FloatCmp                      0      0.00%     76.41% # Class of executed instruction
system.cpu0.op_class::FloatCvt                      0      0.00%     76.41% # Class of executed instruction
system.cpu0.op_class::FloatMult                     0      0.00%     76.41% # Class of executed instruction
system.cpu0.op_class::FloatDiv                      0      0.00%     76.41% # Class of executed instruction
system.cpu0.op_class::FloatSqrt                     0      0.00%     76.41% # Class of executed instruction
system.cpu0.op_class::SimdAdd                       0      0.00%     76.41% # Class of executed instruction
system.cpu0.op_class::SimdAddAcc                    0      0.00%     76.41% # Class of executed instruction
system.cpu0.op_class::SimdAlu                       0      0.00%     76.41% # Class of executed instruction
system.cpu0.op_class::SimdCmp                       0      0.00%     76.41% # Class of executed instruction
system.cpu0.op_class::SimdCvt                       0      0.00%     76.41% # Class of executed instruction
system.cpu0.op_class::SimdMisc                      0      0.00%     76.41% # Class of executed instruction
system.cpu0.op_class::SimdMult                      0      0.00%     76.41% # Class of executed instruction
system.cpu0.op_class::SimdMultAcc                   0      0.00%     76.41% # Class of executed instruction
system.cpu0.op_class::SimdShift                     0      0.00%     76.41% # Class of executed instruction
system.cpu0.op_class::SimdShiftAcc                  0      0.00%     76.41% # Class of executed instruction
system.cpu0.op_class::SimdSqrt                      0      0.00%     76.41% # Class of executed instruction
system.cpu0.op_class::SimdFloatAdd                  0      0.00%     76.41% # Class of executed instruction
system.cpu0.op_class::SimdFloatAlu                  0      0.00%     76.41% # Class of executed instruction
system.cpu0.op_class::SimdFloatCmp                  0      0.00%     76.41% # Class of executed instruction
system.cpu0.op_class::SimdFloatCvt                  0      0.00%     76.41% # Class of executed instruction
system.cpu0.op_class::SimdFloatDiv                  0      0.00%     76.41% # Class of executed instruction
system.cpu0.op_class::SimdFloatMisc                 0      0.00%     76.41% # Class of executed instruction
system.cpu0.op_class::SimdFloatMult                 0      0.00%     76.41% # Class of executed instruction
system.cpu0.op_class::SimdFloatMultAcc              0      0.00%     76.41% # Class of executed instruction
system.cpu0.op_class::SimdFloatSqrt                 0      0.00%     76.41% # Class of executed instruction
system.cpu0.op_class::MemRead                 1023078     14.55%     90.96% # Class of executed instruction
system.cpu0.op_class::MemWrite                 635710      9.04%    100.00% # Class of executed instruction
system.cpu0.op_class::IprAccess                     0      0.00%    100.00% # Class of executed instruction
system.cpu0.op_class::InstPrefetch                  0      0.00%    100.00% # Class of executed instruction
system.cpu0.op_class::total                   7033120                       # Class of executed instruction
system.cpu1.apic_clk_domain.clock                8000                       # Clock period in ticks
system.cpu1.numCycles                      7883042173                       # number of cpu cycles simulated
system.cpu1.numWorkItemsStarted                     0                       # number of work items this cpu started
system.cpu1.numWorkItemsCompleted                   0                       # number of work items this cpu completed
system.cpu1.kern.inst.arm                           0                       # number of arm instructions executed
system.cpu1.kern.inst.quiesce                       0                       # number of quiesce instructions executed
system.cpu1.committedInsts                 2239532844                       # Number of instructions committed
system.cpu1.committedOps                   3132022463                       # Number of ops (including micro ops) committed
system.cpu1.num_int_alu_accesses           1365065123                       # Number of integer alu accesses
system.cpu1.num_fp_alu_accesses            2127680380                       # Number of float alu accesses
system.cpu1.num_func_calls                    4838366                       # number of times a function call or return occured
system.cpu1.num_conditional_control_insts    125350857                       # number of instructions that are conditional controls
system.cpu1.num_int_insts                  1365065123                       # number of integer instructions
system.cpu1.num_fp_insts                   2127680380                       # number of float instructions
system.cpu1.num_int_register_reads         2745645499                       # number of times the integer registers were read
system.cpu1.num_int_register_writes         828530497                       # number of times the integer registers were written
system.cpu1.num_fp_register_reads          4601234200                       # number of times the floating registers were read
system.cpu1.num_fp_register_writes         2077617928                       # number of times the floating registers were written
system.cpu1.num_cc_register_reads           735942939                       # number of times the CC registers were read
system.cpu1.num_cc_register_writes          430170324                       # number of times the CC registers were written
system.cpu1.num_mem_refs                    408352358                       # number of memory refs
system.cpu1.num_load_insts                  353624910                       # Number of load instructions
system.cpu1.num_store_insts                  54727448                       # Number of store instructions
system.cpu1.num_idle_cycles              5105026.251218                       # Number of idle cycles
system.cpu1.num_busy_cycles              7877937146.748782                       # Number of busy cycles
system.cpu1.not_idle_fraction                0.999352                       # Percentage of non-idle cycles
system.cpu1.idle_fraction                    0.000648                       # Percentage of idle cycles
system.cpu1.Branches                        163318601                       # Number of branches fetched
system.cpu1.op_class::No_OpClass              2281921      0.07%      0.07% # Class of executed instruction
system.cpu1.op_class::IntAlu               1676720160     53.53%     53.61% # Class of executed instruction
system.cpu1.op_class::IntMult                   81924      0.00%     53.61% # Class of executed instruction
system.cpu1.op_class::IntDiv                    99021      0.00%     53.61% # Class of executed instruction
system.cpu1.op_class::FloatAdd             1044495741     33.35%     86.96% # Class of executed instruction
system.cpu1.op_class::FloatCmp                      0      0.00%     86.96% # Class of executed instruction
system.cpu1.op_class::FloatCvt                      0      0.00%     86.96% # Class of executed instruction
system.cpu1.op_class::FloatMult                     0      0.00%     86.96% # Class of executed instruction
system.cpu1.op_class::FloatDiv                      0      0.00%     86.96% # Class of executed instruction
system.cpu1.op_class::FloatSqrt                     0      0.00%     86.96% # Class of executed instruction
system.cpu1.op_class::SimdAdd                       0      0.00%     86.96% # Class of executed instruction
system.cpu1.op_class::SimdAddAcc                    0      0.00%     86.96% # Class of executed instruction
system.cpu1.op_class::SimdAlu                       0      0.00%     86.96% # Class of executed instruction
system.cpu1.op_class::SimdCmp                       0      0.00%     86.96% # Class of executed instruction
system.cpu1.op_class::SimdCvt                       0      0.00%     86.96% # Class of executed instruction
system.cpu1.op_class::SimdMisc                      0      0.00%     86.96% # Class of executed instruction
system.cpu1.op_class::SimdMult                      0      0.00%     86.96% # Class of executed instruction
system.cpu1.op_class::SimdMultAcc                   0      0.00%     86.96% # Class of executed instruction
system.cpu1.op_class::SimdShift                     0      0.00%     86.96% # Class of executed instruction
system.cpu1.op_class::SimdShiftAcc                  0      0.00%     86.96% # Class of executed instruction
system.cpu1.op_class::SimdSqrt                      0      0.00%     86.96% # Class of executed instruction
system.cpu1.op_class::SimdFloatAdd                  0      0.00%     86.96% # Class of executed instruction
system.cpu1.op_class::SimdFloatAlu                  0      0.00%     86.96% # Class of executed instruction
system.cpu1.op_class::SimdFloatCmp                  0      0.00%     86.96% # Class of executed instruction
system.cpu1.op_class::SimdFloatCvt                  0      0.00%     86.96% # Class of executed instruction
system.cpu1.op_class::SimdFloatDiv                  0      0.00%     86.96% # Class of executed instruction
system.cpu1.op_class::SimdFloatMisc                 0      0.00%     86.96% # Class of executed instruction
system.cpu1.op_class::SimdFloatMult                 0      0.00%     86.96% # Class of executed instruction
system.cpu1.op_class::SimdFloatMultAcc              0      0.00%     86.96% # Class of executed instruction
system.cpu1.op_class::SimdFloatSqrt                 0      0.00%     86.96% # Class of executed instruction
system.cpu1.op_class::MemRead               353624910     11.29%     98.25% # Class of executed instruction
system.cpu1.op_class::MemWrite               54727448      1.75%    100.00% # Class of executed instruction
system.cpu1.op_class::IprAccess                     0      0.00%    100.00% # Class of executed instruction
system.cpu1.op_class::InstPrefetch                  0      0.00%    100.00% # Class of executed instruction
system.cpu1.op_class::total                3132031125                       # Class of executed instruction
system.cpu2.apic_clk_domain.clock                8000                       # Clock period in ticks
system.cpu2.numCycles                      7882141792                       # number of cpu cycles simulated
system.cpu2.numWorkItemsStarted                     0                       # number of work items this cpu started
system.cpu2.numWorkItemsCompleted                   0                       # number of work items this cpu completed
system.cpu2.kern.inst.arm                           0                       # number of arm instructions executed
system.cpu2.kern.inst.quiesce                       0                       # number of quiesce instructions executed
system.cpu2.committedInsts                    2756597                       # Number of instructions committed
system.cpu2.committedOps                      5956935                       # Number of ops (including micro ops) committed
system.cpu2.num_int_alu_accesses              5825360                       # Number of integer alu accesses
system.cpu2.num_fp_alu_accesses                     0                       # Number of float alu accesses
system.cpu2.num_func_calls                     164614                       # number of times a function call or return occured
system.cpu2.num_conditional_control_insts       417917                       # number of instructions that are conditional controls
system.cpu2.num_int_insts                     5825360                       # number of integer instructions
system.cpu2.num_fp_insts                            0                       # number of float instructions
system.cpu2.num_int_register_reads           11840189                       # number of times the integer registers were read
system.cpu2.num_int_register_writes           4836294                       # number of times the integer registers were written
system.cpu2.num_fp_register_reads                   0                       # number of times the floating registers were read
system.cpu2.num_fp_register_writes                  0                       # number of times the floating registers were written
system.cpu2.num_cc_register_reads             3350181                       # number of times the CC registers were read
system.cpu2.num_cc_register_writes            1759018                       # number of times the CC registers were written
system.cpu2.num_mem_refs                      1418644                       # number of memory refs
system.cpu2.num_load_insts                     882135                       # Number of load instructions
system.cpu2.num_store_insts                    536509                       # Number of store instructions
system.cpu2.num_idle_cycles              7868351282.594140                       # Number of idle cycles
system.cpu2.num_busy_cycles              13790509.405860                       # Number of busy cycles
system.cpu2.not_idle_fraction                0.001750                       # Percentage of non-idle cycles
system.cpu2.idle_fraction                    0.998250                       # Percentage of idle cycles
system.cpu2.Branches                           636107                       # Number of branches fetched
system.cpu2.op_class::No_OpClass               112538      1.89%      1.89% # Class of executed instruction
system.cpu2.op_class::IntAlu                  4373569     73.42%     75.31% # Class of executed instruction
system.cpu2.op_class::IntMult                   12133      0.20%     75.51% # Class of executed instruction
system.cpu2.op_class::IntDiv                    40054      0.67%     76.19% # Class of executed instruction
system.cpu2.op_class::FloatAdd                      0      0.00%     76.19% # Class of executed instruction
system.cpu2.op_class::FloatCmp                      0      0.00%     76.19% # Class of executed instruction
system.cpu2.op_class::FloatCvt                      0      0.00%     76.19% # Class of executed instruction
system.cpu2.op_class::FloatMult                     0      0.00%     76.19% # Class of executed instruction
system.cpu2.op_class::FloatDiv                      0      0.00%     76.19% # Class of executed instruction
system.cpu2.op_class::FloatSqrt                     0      0.00%     76.19% # Class of executed instruction
system.cpu2.op_class::SimdAdd                       0      0.00%     76.19% # Class of executed instruction
system.cpu2.op_class::SimdAddAcc                    0      0.00%     76.19% # Class of executed instruction
system.cpu2.op_class::SimdAlu                       0      0.00%     76.19% # Class of executed instruction
system.cpu2.op_class::SimdCmp                       0      0.00%     76.19% # Class of executed instruction
system.cpu2.op_class::SimdCvt                       0      0.00%     76.19% # Class of executed instruction
system.cpu2.op_class::SimdMisc                      0      0.00%     76.19% # Class of executed instruction
system.cpu2.op_class::SimdMult                      0      0.00%     76.19% # Class of executed instruction
system.cpu2.op_class::SimdMultAcc                   0      0.00%     76.19% # Class of executed instruction
system.cpu2.op_class::SimdShift                     0      0.00%     76.19% # Class of executed instruction
system.cpu2.op_class::SimdShiftAcc                  0      0.00%     76.19% # Class of executed instruction
system.cpu2.op_class::SimdSqrt                      0      0.00%     76.19% # Class of executed instruction
system.cpu2.op_class::SimdFloatAdd                  0      0.00%     76.19% # Class of executed instruction
system.cpu2.op_class::SimdFloatAlu                  0      0.00%     76.19% # Class of executed instruction
system.cpu2.op_class::SimdFloatCmp                  0      0.00%     76.19% # Class of executed instruction
system.cpu2.op_class::SimdFloatCvt                  0      0.00%     76.19% # Class of executed instruction
system.cpu2.op_class::SimdFloatDiv                  0      0.00%     76.19% # Class of executed instruction
system.cpu2.op_class::SimdFloatMisc                 0      0.00%     76.19% # Class of executed instruction
system.cpu2.op_class::SimdFloatMult                 0      0.00%     76.19% # Class of executed instruction
system.cpu2.op_class::SimdFloatMultAcc              0      0.00%     76.19% # Class of executed instruction
system.cpu2.op_class::SimdFloatSqrt                 0      0.00%     76.19% # Class of executed instruction
system.cpu2.op_class::MemRead                  882135     14.81%     90.99% # Class of executed instruction
system.cpu2.op_class::MemWrite                 536509      9.01%    100.00% # Class of executed instruction
system.cpu2.op_class::IprAccess                     0      0.00%    100.00% # Class of executed instruction
system.cpu2.op_class::InstPrefetch                  0      0.00%    100.00% # Class of executed instruction
system.cpu2.op_class::total                   5956938                       # Class of executed instruction
system.cpu3.apic_clk_domain.clock                8000                       # Clock period in ticks
system.cpu3.numCycles                      7882742205                       # number of cpu cycles simulated
system.cpu3.numWorkItemsStarted                     0                       # number of work items this cpu started
system.cpu3.numWorkItemsCompleted                   0                       # number of work items this cpu completed
system.cpu3.kern.inst.arm                           0                       # number of arm instructions executed
system.cpu3.kern.inst.quiesce                       0                       # number of quiesce instructions executed
system.cpu3.committedInsts                    3748806                       # Number of instructions committed
system.cpu3.committedOps                      7817391                       # Number of ops (including micro ops) committed
system.cpu3.num_int_alu_accesses              7658943                       # Number of integer alu accesses
system.cpu3.num_fp_alu_accesses                  1814                       # Number of float alu accesses
system.cpu3.num_func_calls                     201684                       # number of times a function call or return occured
system.cpu3.num_conditional_control_insts       584702                       # number of instructions that are conditional controls
system.cpu3.num_int_insts                     7658943                       # number of integer instructions
system.cpu3.num_fp_insts                         1814                       # number of float instructions
system.cpu3.num_int_register_reads           15531721                       # number of times the integer registers were read
system.cpu3.num_int_register_writes           6320995                       # number of times the integer registers were written
system.cpu3.num_fp_register_reads                3048                       # number of times the floating registers were read
system.cpu3.num_fp_register_writes               1440                       # number of times the floating registers were written
system.cpu3.num_cc_register_reads             4511580                       # number of times the CC registers were read
system.cpu3.num_cc_register_writes            2424109                       # number of times the CC registers were written
system.cpu3.num_mem_refs                      1830422                       # number of memory refs
system.cpu3.num_load_insts                    1141721                       # Number of load instructions
system.cpu3.num_store_insts                    688701                       # Number of store instructions
system.cpu3.num_idle_cycles              7864590075.686850                       # Number of idle cycles
system.cpu3.num_busy_cycles              18152129.313150                       # Number of busy cycles
system.cpu3.not_idle_fraction                0.002303                       # Percentage of non-idle cycles
system.cpu3.idle_fraction                    0.997697                       # Percentage of idle cycles
system.cpu3.Branches                           850455                       # Number of branches fetched
system.cpu3.op_class::No_OpClass               123557      1.58%      1.58% # Class of executed instruction
system.cpu3.op_class::IntAlu                  5804809     74.25%     75.83% # Class of executed instruction
system.cpu3.op_class::IntMult                   13412      0.17%     76.01% # Class of executed instruction
system.cpu3.op_class::IntDiv                    43913      0.56%     76.57% # Class of executed instruction
system.cpu3.op_class::FloatAdd                   1368      0.02%     76.59% # Class of executed instruction
system.cpu3.op_class::FloatCmp                      0      0.00%     76.59% # Class of executed instruction
system.cpu3.op_class::FloatCvt                      0      0.00%     76.59% # Class of executed instruction
system.cpu3.op_class::FloatMult                     0      0.00%     76.59% # Class of executed instruction
system.cpu3.op_class::FloatDiv                      0      0.00%     76.59% # Class of executed instruction
system.cpu3.op_class::FloatSqrt                     0      0.00%     76.59% # Class of executed instruction
system.cpu3.op_class::SimdAdd                       0      0.00%     76.59% # Class of executed instruction
system.cpu3.op_class::SimdAddAcc                    0      0.00%     76.59% # Class of executed instruction
system.cpu3.op_class::SimdAlu                       0      0.00%     76.59% # Class of executed instruction
system.cpu3.op_class::SimdCmp                       0      0.00%     76.59% # Class of executed instruction
system.cpu3.op_class::SimdCvt                       0      0.00%     76.59% # Class of executed instruction
system.cpu3.op_class::SimdMisc                      0      0.00%     76.59% # Class of executed instruction
system.cpu3.op_class::SimdMult                      0      0.00%     76.59% # Class of executed instruction
system.cpu3.op_class::SimdMultAcc                   0      0.00%     76.59% # Class of executed instruction
system.cpu3.op_class::SimdShift                     0      0.00%     76.59% # Class of executed instruction
system.cpu3.op_class::SimdShiftAcc                  0      0.00%     76.59% # Class of executed instruction
system.cpu3.op_class::SimdSqrt                      0      0.00%     76.59% # Class of executed instruction
system.cpu3.op_class::SimdFloatAdd                  0      0.00%     76.59% # Class of executed instruction
system.cpu3.op_class::SimdFloatAlu                  0      0.00%     76.59% # Class of executed instruction
system.cpu3.op_class::SimdFloatCmp                  0      0.00%     76.59% # Class of executed instruction
system.cpu3.op_class::SimdFloatCvt                  0      0.00%     76.59% # Class of executed instruction
system.cpu3.op_class::SimdFloatDiv                  0      0.00%     76.59% # Class of executed instruction
system.cpu3.op_class::SimdFloatMisc                 0      0.00%     76.59% # Class of executed instruction
system.cpu3.op_class::SimdFloatMult                 0      0.00%     76.59% # Class of executed instruction
system.cpu3.op_class::SimdFloatMultAcc              0      0.00%     76.59% # Class of executed instruction
system.cpu3.op_class::SimdFloatSqrt                 0      0.00%     76.59% # Class of executed instruction
system.cpu3.op_class::MemRead                 1141721     14.60%     91.19% # Class of executed instruction
system.cpu3.op_class::MemWrite                 688701      8.81%    100.00% # Class of executed instruction
system.cpu3.op_class::IprAccess                     0      0.00%    100.00% # Class of executed instruction
system.cpu3.op_class::InstPrefetch                  0      0.00%    100.00% # Class of executed instruction
system.cpu3.op_class::total                   7817481                       # Class of executed instruction
system.iobus.trans_dist::ReadReq                  203                       # Transaction distribution
system.iobus.trans_dist::ReadResp                 203                       # Transaction distribution
system.iobus.trans_dist::WriteReq                4090                       # Transaction distribution
system.iobus.trans_dist::WriteResp               4090                       # Transaction distribution
system.iobus.trans_dist::MessageReq                21                       # Transaction distribution
system.iobus.trans_dist::MessageResp               21                       # Transaction distribution
system.iobus.pkt_count_system.pc.south_bridge.io_apic.int_master::system.ruby.l1_cntrl0.sequencer.pio-slave-port            4                       # Packet count per connected master and slave (bytes)
system.iobus.pkt_count_system.pc.south_bridge.io_apic.int_master::system.ruby.l1_cntrl1.sequencer.pio-slave-port            6                       # Packet count per connected master and slave (bytes)
system.iobus.pkt_count_system.pc.south_bridge.io_apic.int_master::system.ruby.l1_cntrl2.sequencer.pio-slave-port            6                       # Packet count per connected master and slave (bytes)
system.iobus.pkt_count_system.pc.south_bridge.io_apic.int_master::system.ruby.l1_cntrl3.sequencer.pio-slave-port            6                       # Packet count per connected master and slave (bytes)
system.iobus.pkt_count_system.pc.south_bridge.io_apic.int_master::total           22                       # Packet count per connected master and slave (bytes)
system.iobus.pkt_count_system.ruby.l1_cntrl0.sequencer.mem-master-port::system.pc.south_bridge.ide.pio           46                       # Packet count per connected master and slave (bytes)
system.iobus.pkt_count_system.ruby.l1_cntrl0.sequencer.mem-master-port::system.pc.south_bridge.io_apic.pio            8                       # Packet count per connected master and slave (bytes)
system.iobus.pkt_count_system.ruby.l1_cntrl0.sequencer.mem-master-port::system.ruby.l1_cntrl0.sequencer.pio-slave-port         1988                       # Packet count per connected master and slave (bytes)
system.iobus.pkt_count_system.ruby.l1_cntrl0.sequencer.mem-master-port::system.ruby.l1_cntrl1.sequencer.pio-slave-port            2                       # Packet count per connected master and slave (bytes)
system.iobus.pkt_count_system.ruby.l1_cntrl0.sequencer.mem-master-port::total         2044                       # Packet count per connected master and slave (bytes)
system.iobus.pkt_count_system.ruby.l1_cntrl1.sequencer.mem-master-port::system.pc.south_bridge.ide.pio           46                       # Packet count per connected master and slave (bytes)
system.iobus.pkt_count_system.ruby.l1_cntrl1.sequencer.mem-master-port::system.pc.south_bridge.io_apic.pio           14                       # Packet count per connected master and slave (bytes)
system.iobus.pkt_count_system.ruby.l1_cntrl1.sequencer.mem-master-port::system.pc.com_1.pio          254                       # Packet count per connected master and slave (bytes)
system.iobus.pkt_count_system.ruby.l1_cntrl1.sequencer.mem-master-port::system.ruby.l1_cntrl0.sequencer.pio-slave-port            4                       # Packet count per connected master and slave (bytes)
system.iobus.pkt_count_system.ruby.l1_cntrl1.sequencer.mem-master-port::system.ruby.l1_cntrl1.sequencer.pio-slave-port         2010                       # Packet count per connected master and slave (bytes)
system.iobus.pkt_count_system.ruby.l1_cntrl1.sequencer.mem-master-port::system.ruby.l1_cntrl2.sequencer.pio-slave-port            6                       # Packet count per connected master and slave (bytes)
system.iobus.pkt_count_system.ruby.l1_cntrl1.sequencer.mem-master-port::total         2334                       # Packet count per connected master and slave (bytes)
system.iobus.pkt_count_system.ruby.l1_cntrl2.sequencer.mem-master-port::system.pc.south_bridge.io_apic.pio           20                       # Packet count per connected master and slave (bytes)
system.iobus.pkt_count_system.ruby.l1_cntrl2.sequencer.mem-master-port::system.pc.com_1.pio          186                       # Packet count per connected master and slave (bytes)
system.iobus.pkt_count_system.ruby.l1_cntrl2.sequencer.mem-master-port::system.ruby.l1_cntrl2.sequencer.pio-slave-port         1992                       # Packet count per connected master and slave (bytes)
system.iobus.pkt_count_system.ruby.l1_cntrl2.sequencer.mem-master-port::system.ruby.l1_cntrl3.sequencer.pio-slave-port            2                       # Packet count per connected master and slave (bytes)
system.iobus.pkt_count_system.ruby.l1_cntrl2.sequencer.mem-master-port::total         2200                       # Packet count per connected master and slave (bytes)
system.iobus.pkt_count_system.ruby.l1_cntrl3.sequencer.mem-master-port::system.pc.south_bridge.io_apic.pio           24                       # Packet count per connected master and slave (bytes)
system.iobus.pkt_count_system.ruby.l1_cntrl3.sequencer.mem-master-port::system.ruby.l1_cntrl0.sequencer.pio-slave-port            2                       # Packet count per connected master and slave (bytes)
system.iobus.pkt_count_system.ruby.l1_cntrl3.sequencer.mem-master-port::system.ruby.l1_cntrl1.sequencer.pio-slave-port            2                       # Packet count per connected master and slave (bytes)
system.iobus.pkt_count_system.ruby.l1_cntrl3.sequencer.mem-master-port::system.ruby.l1_cntrl2.sequencer.pio-slave-port            2                       # Packet count per connected master and slave (bytes)
system.iobus.pkt_count_system.ruby.l1_cntrl3.sequencer.mem-master-port::system.ruby.l1_cntrl3.sequencer.pio-slave-port         1998                       # Packet count per connected master and slave (bytes)
system.iobus.pkt_count_system.ruby.l1_cntrl3.sequencer.mem-master-port::total         2028                       # Packet count per connected master and slave (bytes)
system.iobus.pkt_count::total                    8628                       # Packet count per connected master and slave (bytes)
system.iobus.pkt_size_system.pc.south_bridge.io_apic.int_master::system.ruby.l1_cntrl0.sequencer.pio-slave-port            8                       # Cumulative packet size per connected master and slave (bytes)
system.iobus.pkt_size_system.pc.south_bridge.io_apic.int_master::system.ruby.l1_cntrl1.sequencer.pio-slave-port           12                       # Cumulative packet size per connected master and slave (bytes)
system.iobus.pkt_size_system.pc.south_bridge.io_apic.int_master::system.ruby.l1_cntrl2.sequencer.pio-slave-port           12                       # Cumulative packet size per connected master and slave (bytes)
system.iobus.pkt_size_system.pc.south_bridge.io_apic.int_master::system.ruby.l1_cntrl3.sequencer.pio-slave-port           12                       # Cumulative packet size per connected master and slave (bytes)
system.iobus.pkt_size_system.pc.south_bridge.io_apic.int_master::total           44                       # Cumulative packet size per connected master and slave (bytes)
system.iobus.pkt_size_system.ruby.l1_cntrl0.sequencer.mem-master-port::system.pc.south_bridge.ide.pio           26                       # Cumulative packet size per connected master and slave (bytes)
system.iobus.pkt_size_system.ruby.l1_cntrl0.sequencer.mem-master-port::system.pc.south_bridge.io_apic.pio           16                       # Cumulative packet size per connected master and slave (bytes)
system.iobus.pkt_size_system.ruby.l1_cntrl0.sequencer.mem-master-port::system.ruby.l1_cntrl0.sequencer.pio-slave-port         3976                       # Cumulative packet size per connected master and slave (bytes)
system.iobus.pkt_size_system.ruby.l1_cntrl0.sequencer.mem-master-port::system.ruby.l1_cntrl1.sequencer.pio-slave-port            4                       # Cumulative packet size per connected master and slave (bytes)
system.iobus.pkt_size_system.ruby.l1_cntrl0.sequencer.mem-master-port::total         4022                       # Cumulative packet size per connected master and slave (bytes)
system.iobus.pkt_size_system.ruby.l1_cntrl1.sequencer.mem-master-port::system.pc.south_bridge.ide.pio           26                       # Cumulative packet size per connected master and slave (bytes)
system.iobus.pkt_size_system.ruby.l1_cntrl1.sequencer.mem-master-port::system.pc.south_bridge.io_apic.pio           28                       # Cumulative packet size per connected master and slave (bytes)
system.iobus.pkt_size_system.ruby.l1_cntrl1.sequencer.mem-master-port::system.pc.com_1.pio          127                       # Cumulative packet size per connected master and slave (bytes)
system.iobus.pkt_size_system.ruby.l1_cntrl1.sequencer.mem-master-port::system.ruby.l1_cntrl0.sequencer.pio-slave-port            8                       # Cumulative packet size per connected master and slave (bytes)
system.iobus.pkt_size_system.ruby.l1_cntrl1.sequencer.mem-master-port::system.ruby.l1_cntrl1.sequencer.pio-slave-port         4020                       # Cumulative packet size per connected master and slave (bytes)
system.iobus.pkt_size_system.ruby.l1_cntrl1.sequencer.mem-master-port::system.ruby.l1_cntrl2.sequencer.pio-slave-port           12                       # Cumulative packet size per connected master and slave (bytes)
system.iobus.pkt_size_system.ruby.l1_cntrl1.sequencer.mem-master-port::total         4221                       # Cumulative packet size per connected master and slave (bytes)
system.iobus.pkt_size_system.ruby.l1_cntrl2.sequencer.mem-master-port::system.pc.south_bridge.io_apic.pio           40                       # Cumulative packet size per connected master and slave (bytes)
system.iobus.pkt_size_system.ruby.l1_cntrl2.sequencer.mem-master-port::system.pc.com_1.pio           93                       # Cumulative packet size per connected master and slave (bytes)
system.iobus.pkt_size_system.ruby.l1_cntrl2.sequencer.mem-master-port::system.ruby.l1_cntrl2.sequencer.pio-slave-port         3984                       # Cumulative packet size per connected master and slave (bytes)
system.iobus.pkt_size_system.ruby.l1_cntrl2.sequencer.mem-master-port::system.ruby.l1_cntrl3.sequencer.pio-slave-port            4                       # Cumulative packet size per connected master and slave (bytes)
system.iobus.pkt_size_system.ruby.l1_cntrl2.sequencer.mem-master-port::total         4121                       # Cumulative packet size per connected master and slave (bytes)
system.iobus.pkt_size_system.ruby.l1_cntrl3.sequencer.mem-master-port::system.pc.south_bridge.io_apic.pio           48                       # Cumulative packet size per connected master and slave (bytes)
system.iobus.pkt_size_system.ruby.l1_cntrl3.sequencer.mem-master-port::system.ruby.l1_cntrl0.sequencer.pio-slave-port            4                       # Cumulative packet size per connected master and slave (bytes)
system.iobus.pkt_size_system.ruby.l1_cntrl3.sequencer.mem-master-port::system.ruby.l1_cntrl1.sequencer.pio-slave-port            4                       # Cumulative packet size per connected master and slave (bytes)
system.iobus.pkt_size_system.ruby.l1_cntrl3.sequencer.mem-master-port::system.ruby.l1_cntrl2.sequencer.pio-slave-port            4                       # Cumulative packet size per connected master and slave (bytes)
system.iobus.pkt_size_system.ruby.l1_cntrl3.sequencer.mem-master-port::system.ruby.l1_cntrl3.sequencer.pio-slave-port         3996                       # Cumulative packet size per connected master and slave (bytes)
system.iobus.pkt_size_system.ruby.l1_cntrl3.sequencer.mem-master-port::total         4056                       # Cumulative packet size per connected master and slave (bytes)
system.iobus.pkt_size::total                    16464                       # Cumulative packet size per connected master and slave (bytes)
system.iobus.reqLayer2.occupancy                82000                       # Layer occupancy (ticks)
system.iobus.reqLayer2.utilization                0.0                       # Layer utilization (%)
system.iobus.reqLayer8.occupancy                58495                       # Layer occupancy (ticks)
system.iobus.reqLayer8.utilization                0.0                       # Layer utilization (%)
system.iobus.reqLayer12.occupancy              282500                       # Layer occupancy (ticks)
system.iobus.reqLayer12.utilization               0.0                       # Layer utilization (%)
system.iobus.reqLayer17.occupancy             2372998                       # Layer occupancy (ticks)
system.iobus.reqLayer17.utilization               0.0                       # Layer utilization (%)
system.iobus.reqLayer18.occupancy             2761012                       # Layer occupancy (ticks)
system.iobus.reqLayer18.utilization               0.0                       # Layer utilization (%)
system.iobus.reqLayer19.occupancy             2339500                       # Layer occupancy (ticks)
system.iobus.reqLayer19.utilization               0.0                       # Layer utilization (%)
system.iobus.reqLayer20.occupancy             2378998                       # Layer occupancy (ticks)
system.iobus.reqLayer20.utilization               0.0                       # Layer utilization (%)
system.iobus.respLayer0.occupancy               15498                       # Layer occupancy (ticks)
system.iobus.respLayer0.utilization               0.0                       # Layer utilization (%)
system.iobus.respLayer2.occupancy             1530000                       # Layer occupancy (ticks)
system.iobus.respLayer2.utilization               0.0                       # Layer utilization (%)
system.iobus.respLayer4.occupancy             1781000                       # Layer occupancy (ticks)
system.iobus.respLayer4.utilization               0.0                       # Layer utilization (%)
system.iobus.respLayer6.occupancy             1670000                       # Layer occupancy (ticks)
system.iobus.respLayer6.utilization               0.0                       # Layer utilization (%)
system.iobus.respLayer8.occupancy             1522500                       # Layer occupancy (ticks)
system.iobus.respLayer8.utilization               0.0                       # Layer utilization (%)
system.pc.south_bridge.ide.disks.dma_read_full_pages            1                       # Number of full page size DMA reads (not PRD).
system.pc.south_bridge.ide.disks.dma_read_bytes         4096                       # Number of bytes transfered via DMA reads (not PRD).
system.pc.south_bridge.ide.disks.dma_read_txs            1                       # Number of DMA read transactions (not PRD).
system.pc.south_bridge.ide.disks.dma_write_full_pages           24                       # Number of full page size DMA writes.
system.pc.south_bridge.ide.disks.dma_write_bytes        98304                       # Number of bytes transfered via DMA writes.
system.pc.south_bridge.ide.disks.dma_write_txs           24                       # Number of DMA write transactions.
system.ruby.clk_domain.clock                      500                       # Clock period in ticks
system.ruby.delayHist::bucket_size                  4                       # delay histogram for all message
system.ruby.delayHist::max_bucket                  39                       # delay histogram for all message
system.ruby.delayHist::samples               26917705                       # delay histogram for all message
system.ruby.delayHist::mean                  0.364577                       # delay histogram for all message
system.ruby.delayHist::stdev                 1.664925                       # delay histogram for all message
system.ruby.delayHist                    |    25698373     95.47%     95.47% |        2514      0.01%     95.48% |     1216392      4.52%    100.00% |         122      0.00%    100.00% |         288      0.00%    100.00% |           6      0.00%    100.00% |           9      0.00%    100.00% |           1      0.00%    100.00% |           0      0.00%    100.00% |           0      0.00%    100.00% # delay histogram for all message
system.ruby.delayHist::total                 26917705                       # delay histogram for all message
system.ruby.outstanding_req_hist_seqr::bucket_size            1                      
system.ruby.outstanding_req_hist_seqr::max_bucket            9                      
system.ruby.outstanding_req_hist_seqr::samples   3806174885                      
system.ruby.outstanding_req_hist_seqr::mean     1.000000                      
system.ruby.outstanding_req_hist_seqr::gmean     1.000000                      
system.ruby.outstanding_req_hist_seqr::stdev     0.000229                      
system.ruby.outstanding_req_hist_seqr    |           0      0.00%      0.00% |  3806174686    100.00%    100.00% |         199      0.00%    100.00% |           0      0.00%    100.00% |           0      0.00%    100.00% |           0      0.00%    100.00% |           0      0.00%    100.00% |           0      0.00%    100.00% |           0      0.00%    100.00% |           0      0.00%    100.00%
system.ruby.outstanding_req_hist_seqr::total   3806174885                      
system.ruby.latency_hist_seqr::bucket_size          256                      
system.ruby.latency_hist_seqr::max_bucket         2559                      
system.ruby.latency_hist_seqr::samples     3806174885                      
system.ruby.latency_hist_seqr::mean          1.082059                      
system.ruby.latency_hist_seqr::gmean         1.004628                      
system.ruby.latency_hist_seqr::stdev         3.636551                      
system.ruby.latency_hist_seqr            |  3806088962    100.00%    100.00% |       60426      0.00%    100.00% |       24548      0.00%    100.00% |         573      0.00%    100.00% |         359      0.00%    100.00% |          17      0.00%    100.00% |           0      0.00%    100.00% |           0      0.00%    100.00% |           0      0.00%    100.00% |           0      0.00%    100.00%
system.ruby.latency_hist_seqr::total       3806174885                      
system.ruby.hit_latency_hist_seqr::bucket_size            1                      
[...]
system.ruby.DMA_Controller.BUSY_RD.Data  |          91    100.00%    100.00% |           0      0.00%    100.00%
system.ruby.DMA_Controller.BUSY_RD.Data::total           91                      
system.ruby.DMA_Controller.BUSY_WR.Ack   |        1664    100.00%    100.00% |           0      0.00%    100.00%
system.ruby.DMA_Controller.BUSY_WR.Ack::total         1664                      
system.ruby.L1Cache_Controller.Load      |     1243392      0.34%      0.34% |   360130586     98.69%     99.03% |     1637472      0.45%     99.48% |     1901690      0.52%    100.00%
system.ruby.L1Cache_Controller.Load::total    364913140                      
system.ruby.L1Cache_Controller.Ifetch    |     5786305      0.00%      0.00% |18446744072788619264    100.00%    100.00% |     8259052      0.00%    100.00% |     9729617      0.00%    100.00%
system.ruby.L1Cache_Controller.Ifetch::total 18446744072812394496                      
system.ruby.L1Cache_Controller.Store     |      944600      1.61%      1.61% |    55214383     93.87%     95.48% |     1211902      2.06%     97.54% |     1447012      2.46%    100.00%
system.ruby.L1Cache_Controller.Store::total     58817897                      
system.ruby.L1Cache_Controller.Inv       |       40469     22.76%     22.76% |       43618     24.53%     47.29% |       45045     25.33%     72.62% |       48687     27.38%    100.00%
system.ruby.L1Cache_Controller.Inv::total       177819                      
system.ruby.L1Cache_Controller.L1_Replacement |      103101      2.10%      2.10% |     4566657     92.86%     94.95% |      120624      2.45%     97.41% |      127490      2.59%    100.00%
system.ruby.L1Cache_Controller.L1_Replacement::total      4917872                      
system.ruby.L1Cache_Controller.Fwd_GETX  |        1800     26.66%     26.66% |         930     13.77%     40.43% |        2594     38.42%     78.85% |        1428     21.15%    100.00%
system.ruby.L1Cache_Controller.Fwd_GETX::total         6752                      
system.ruby.L1Cache_Controller.Fwd_GETS  |       11979     42.98%     42.98% |        4134     14.83%     57.82% |        6622     23.76%     81.58% |        5134     18.42%    100.00%
system.ruby.L1Cache_Controller.Fwd_GETS::total        27869                      
system.ruby.L1Cache_Controller.Data      |         144      4.62%      4.62% |         940     30.15%     34.77% |        1915     61.42%     96.18% |         119      3.82%    100.00%
system.ruby.L1Cache_Controller.Data::total         3118                      
system.ruby.L1Cache_Controller.Data_Exclusive |       20913      0.53%      0.53% |     3836718     97.65%     98.18% |       34843      0.89%     99.07% |       36620      0.93%    100.00%
system.ruby.L1Cache_Controller.Data_Exclusive::total      3929094                      
system.ruby.L1Cache_Controller.DataS_fromL1 |        6316     22.66%     22.66% |        1828      6.56%     29.22% |        7056     25.32%     54.54% |       12669     45.46%    100.00%
system.ruby.L1Cache_Controller.DataS_fromL1::total        27869                      
system.ruby.L1Cache_Controller.Data_all_Acks |       99645      9.45%      9.45% |      744641     70.65%     80.11% |      105400     10.00%     90.11% |      104252      9.89%    100.00%
system.ruby.L1Cache_Controller.Data_all_Acks::total      1053938                      
system.ruby.L1Cache_Controller.Ack       |       20871     47.33%     47.33% |        8984     20.37%     67.70% |        7603     17.24%     84.94% |        6640     15.06%    100.00%
system.ruby.L1Cache_Controller.Ack::total        44098                      
system.ruby.L1Cache_Controller.Ack_all   |        9197     38.89%     38.89% |        4136     17.49%     56.38% |        5574     23.57%     79.96% |        4740     20.04%    100.00%
system.ruby.L1Cache_Controller.Ack_all::total        23647                      
system.ruby.L1Cache_Controller.WB_Ack    |       21416      0.47%      0.47% |     4396917     97.50%     97.98% |       40529      0.90%     98.88% |       50651      1.12%    100.00%
system.ruby.L1Cache_Controller.WB_Ack::total      4509513                      
system.ruby.L1Cache_Controller.NP.Load   |       30931      0.78%      0.78% |     3862824     96.87%     97.65% |       43541      1.09%     98.74% |       50159      1.26%    100.00%
system.ruby.L1Cache_Controller.NP.Load::total      3987455                      
system.ruby.L1Cache_Controller.NP.Ifetch |       61730     19.54%     19.54% |      136127     43.08%     62.62% |       61612     19.50%     82.12% |       56506     17.88%    100.00%
system.ruby.L1Cache_Controller.NP.Ifetch::total       315975                      
system.ruby.L1Cache_Controller.NP.Store  |       10925      1.78%      1.78% |      567706     92.30%     94.08% |       15587      2.53%     96.61% |       20825      3.39%    100.00%
system.ruby.L1Cache_Controller.NP.Store::total       615043                      
system.ruby.L1Cache_Controller.NP.Inv    |        7115     16.79%     16.79% |       14950     35.28%     52.07% |        8797     20.76%     72.83% |       11512     27.17%    100.00%
system.ruby.L1Cache_Controller.NP.Inv::total        42374                      
system.ruby.L1Cache_Controller.I.Load    |        6250     19.23%     19.23% |        2849      8.77%     28.00% |       12352     38.01%     66.02% |       11043     33.98%    100.00%
system.ruby.L1Cache_Controller.I.Load::total        32494                      
system.ruby.L1Cache_Controller.I.Ifetch  |       12257     25.87%     25.87% |       13970     29.49%     55.36% |       10490     22.14%     77.50% |       10658     22.50%    100.00%
system.ruby.L1Cache_Controller.I.Ifetch::total        47375                      
system.ruby.L1Cache_Controller.I.Store   |        4924     31.41%     31.41% |         651      4.15%     35.57% |        5631     35.92%     71.49% |        4469     28.51%    100.00%
system.ruby.L1Cache_Controller.I.Store::total        15675                      
system.ruby.L1Cache_Controller.I.L1_Replacement |       11974     26.04%     26.04% |       11619     25.26%     51.30% |       10368     22.54%     73.85% |       12028     26.15%    100.00%
system.ruby.L1Cache_Controller.I.L1_Replacement::total        45989                      
system.ruby.L1Cache_Controller.S.Load    |      207957     23.82%     23.82% |      133577     15.30%     39.12% |      254707     29.17%     68.29% |      276884     31.71%    100.00%
system.ruby.L1Cache_Controller.S.Load::total       873125                      
system.ruby.L1Cache_Controller.S.Ifetch  |     5712318      0.00%      0.00% |18446744072788469760    100.00%    100.00% |     8186947      0.00%    100.00% |     9662453      0.00%    100.00%
system.ruby.L1Cache_Controller.S.Ifetch::total 18446744072812032000                      
system.ruby.L1Cache_Controller.S.Store   |        9054     44.10%     44.10% |        3196     15.57%     59.67% |        3660     17.83%     77.49% |        4621     22.51%    100.00%
system.ruby.L1Cache_Controller.S.Store::total        20531                      
system.ruby.L1Cache_Controller.S.Inv     |       23457     23.61%     23.61% |       21971     22.11%     45.73% |       26567     26.74%     72.47% |       27355     27.53%    100.00%
system.ruby.L1Cache_Controller.S.Inv::total        99350                      
system.ruby.L1Cache_Controller.S.L1_Replacement |       69711     19.24%     19.24% |      158121     43.64%     62.87% |       69727     19.24%     82.11% |       64811     17.89%    100.00%
system.ruby.L1Cache_Controller.S.L1_Replacement::total       362370                      
system.ruby.L1Cache_Controller.E.Load    |      172346      0.10%      0.10% |   168548621     99.55%     99.65% |      289918      0.17%     99.83% |      295880      0.17%    100.00%
system.ruby.L1Cache_Controller.E.Load::total    169306765                      
system.ruby.L1Cache_Controller.E.Store   |        4264      0.67%      0.67% |      611188     95.38%     96.05% |       11072      1.73%     97.77% |       14271      2.23%    100.00%
system.ruby.L1Cache_Controller.E.Store::total       640795                      
system.ruby.L1Cache_Controller.E.Inv     |        3270     23.38%     23.38% |        4327     30.94%     54.33% |        3006     21.50%     75.82% |        3381     24.18%    100.00%
system.ruby.L1Cache_Controller.E.Inv::total        13984                      
system.ruby.L1Cache_Controller.E.L1_Replacement |        8113      0.25%      0.25% |     3220407     98.73%     98.98% |       16318      0.50%     99.48% |       17072      0.52%    100.00%
system.ruby.L1Cache_Controller.E.L1_Replacement::total      3261910                      
system.ruby.L1Cache_Controller.E.Fwd_GETX |         987     35.06%     35.06% |          81      2.88%     37.94% |        1234     43.84%     81.78% |         513     18.22%    100.00%
system.ruby.L1Cache_Controller.E.Fwd_GETX::total         2815                      
system.ruby.L1Cache_Controller.E.Fwd_GETS |        3795     40.14%     40.14% |         698      7.38%     47.52% |        3201     33.86%     81.38% |        1760     18.62%    100.00%
system.ruby.L1Cache_Controller.E.Fwd_GETS::total         9454                      
system.ruby.L1Cache_Controller.M.Load    |      825908      0.43%      0.43% |   187582715     98.36%     98.79% |     1036954      0.54%     99.34% |     1267724      0.66%    100.00%
system.ruby.L1Cache_Controller.M.Load::total    190713301                      
system.ruby.L1Cache_Controller.M.Store   |      915433      1.59%      1.59% |    54031642     93.93%     95.52% |     1175952      2.04%     97.56% |     1402826      2.44%    100.00%
system.ruby.L1Cache_Controller.M.Store::total     57525853                      
system.ruby.L1Cache_Controller.M.Inv     |        6626     29.97%     29.97% |        2369     10.72%     40.69% |        6674     30.19%     70.87% |        6439     29.13%    100.00%
system.ruby.L1Cache_Controller.M.Inv::total        22108                      
system.ruby.L1Cache_Controller.M.L1_Replacement |       13303      1.07%      1.07% |     1176510     94.30%     95.37% |       24211      1.94%     97.31% |       33579      2.69%    100.00%
system.ruby.L1Cache_Controller.M.L1_Replacement::total      1247603                      
system.ruby.L1Cache_Controller.M.Fwd_GETX |         813     20.65%     20.65% |         849     21.56%     42.21% |        1360     34.54%     76.76% |         915     23.24%    100.00%
system.ruby.L1Cache_Controller.M.Fwd_GETX::total         3937                      
system.ruby.L1Cache_Controller.M.Fwd_GETS |        8184     44.44%     44.44% |        3436     18.66%     63.10% |        3421     18.58%     81.68% |        3374     18.32%    100.00%
system.ruby.L1Cache_Controller.M.Fwd_GETS::total        18415                      
system.ruby.L1Cache_Controller.IS.Data_Exclusive |       20913      0.53%      0.53% |     3836718     97.65%     98.18% |       34843      0.89%     99.07% |       36620      0.93%    100.00%
system.ruby.L1Cache_Controller.IS.Data_Exclusive::total      3929094                      
system.ruby.L1Cache_Controller.IS.DataS_fromL1 |        6316     22.66%     22.66% |        1828      6.56%     29.22% |        7056     25.32%     54.54% |       12669     45.46%    100.00%
system.ruby.L1Cache_Controller.IS.DataS_fromL1::total        27869                      
system.ruby.L1Cache_Controller.IS.Data_all_Acks |       83939     19.69%     19.69% |      177224     41.57%     61.26% |       86096     20.19%     81.45% |       79077     18.55%    100.00%
system.ruby.L1Cache_Controller.IS.Data_all_Acks::total       426336                      
system.ruby.L1Cache_Controller.IM.Data   |         144      4.62%      4.62% |         940     30.15%     34.77% |        1915     61.42%     96.18% |         119      3.82%    100.00%
system.ruby.L1Cache_Controller.IM.Data::total         3118                      
system.ruby.L1Cache_Controller.IM.Data_all_Acks |       15706      2.50%      2.50% |      567417     90.41%     92.91% |       19304      3.08%     95.99% |       25175      4.01%    100.00%
system.ruby.L1Cache_Controller.IM.Data_all_Acks::total       627602                      
system.ruby.L1Cache_Controller.SM.Inv    |           1     50.00%     50.00% |           0      0.00%     50.00% |           1     50.00%    100.00% |           0      0.00%    100.00%
system.ruby.L1Cache_Controller.SM.Inv::total            2                      
system.ruby.L1Cache_Controller.SM.Ack    |       20871     47.33%     47.33% |        8984     20.37%     67.70% |        7603     17.24%     84.94% |        6640     15.06%    100.00%
system.ruby.L1Cache_Controller.SM.Ack::total        44098                      
system.ruby.L1Cache_Controller.SM.Ack_all |        9197     38.89%     38.89% |        4136     17.49%     56.38% |        5574     23.57%     79.96% |        4740     20.04%    100.00%
system.ruby.L1Cache_Controller.SM.Ack_all::total        23647                      
system.ruby.L1Cache_Controller.M_I.Ifetch |           0      0.00%      0.00% |           0      0.00%      0.00% |           3    100.00%    100.00% |           0      0.00%    100.00%
system.ruby.L1Cache_Controller.M_I.Ifetch::total            3                      
system.ruby.L1Cache_Controller.M_I.Inv   |           0      0.00%      0.00% |           1    100.00%    100.00% |           0      0.00%    100.00% |           0      0.00%    100.00%
system.ruby.L1Cache_Controller.M_I.Inv::total            1                      
system.ruby.L1Cache_Controller.M_I.WB_Ack |       21416      0.47%      0.47% |     4396916     97.50%     97.98% |       40529      0.90%     98.88% |       50651      1.12%    100.00%
system.ruby.L1Cache_Controller.M_I.WB_Ack::total      4509512                      
system.ruby.L1Cache_Controller.SINK_WB_ACK.WB_Ack |           0      0.00%      0.00% |           1    100.00%    100.00% |           0      0.00%    100.00% |           0      0.00%    100.00%
system.ruby.L1Cache_Controller.SINK_WB_ACK.WB_Ack::total            1                      
system.ruby.L2Cache_Controller.L1_GET_INSTR       363351      0.00%      0.00%
system.ruby.L2Cache_Controller.L1_GETS        4020380      0.00%      0.00%
system.ruby.L2Cache_Controller.L1_GETX         630724      0.00%      0.00%
system.ruby.L2Cache_Controller.L1_UPGRADE        20531      0.00%      0.00%
system.ruby.L2Cache_Controller.L1_PUTX        4509512      0.00%      0.00%
system.ruby.L2Cache_Controller.L1_PUTX_old            2      0.00%      0.00%
system.ruby.L2Cache_Controller.L2_Replacement       900936      0.00%      0.00%
system.ruby.L2Cache_Controller.L2_Replacement_clean       913987      0.00%      0.00%
system.ruby.L2Cache_Controller.Mem_Data       1824657      0.00%      0.00%
system.ruby.L2Cache_Controller.Mem_Ack        1814930      0.00%      0.00%
system.ruby.L2Cache_Controller.WB_Data          40523      0.00%      0.00%
system.ruby.L2Cache_Controller.WB_Data_clean         9455      0.00%      0.00%
system.ruby.L2Cache_Controller.Ack              45227      0.00%      0.00%
system.ruby.L2Cache_Controller.Ack_all          63267      0.00%      0.00%
system.ruby.L2Cache_Controller.Unblock          27869      0.00%      0.00%
system.ruby.L2Cache_Controller.Exclusive_Unblock      4580343      0.00%      0.00%
system.ruby.L2Cache_Controller.MEM_Inv             14      0.00%      0.00%
system.ruby.L2Cache_Controller.NP.L1_GET_INSTR        46152      0.00%      0.00%
system.ruby.L2Cache_Controller.NP.L1_GETS      1334817      0.00%      0.00%
system.ruby.L2Cache_Controller.NP.L1_GETX       443688      0.00%      0.00%
system.ruby.L2Cache_Controller.NP.L1_PUTX_old            1      0.00%      0.00%
system.ruby.L2Cache_Controller.SS.L1_GET_INSTR       317177      0.00%      0.00%
system.ruby.L2Cache_Controller.SS.L1_GETS        62930      0.00%      0.00%
system.ruby.L2Cache_Controller.SS.L1_GETX         3118      0.00%      0.00%
system.ruby.L2Cache_Controller.SS.L1_UPGRADE        20529      0.00%      0.00%
system.ruby.L2Cache_Controller.SS.L2_Replacement          999      0.00%      0.00%
system.ruby.L2Cache_Controller.SS.L2_Replacement_clean        48284      0.00%      0.00%
system.ruby.L2Cache_Controller.M.L1_GET_INSTR           18      0.00%      0.00%
system.ruby.L2Cache_Controller.M.L1_GETS      2594305      0.00%      0.00%
system.ruby.L2Cache_Controller.M.L1_GETX       177162      0.00%      0.00%
system.ruby.L2Cache_Controller.M.L2_Replacement       897589      0.00%      0.00%
system.ruby.L2Cache_Controller.M.L2_Replacement_clean       831965      0.00%      0.00%
system.ruby.L2Cache_Controller.MT.L1_GETS        27869      0.00%      0.00%
system.ruby.L2Cache_Controller.MT.L1_GETX         6752      0.00%      0.00%
system.ruby.L2Cache_Controller.MT.L1_PUTX      4509512      0.00%      0.00%
system.ruby.L2Cache_Controller.MT.L2_Replacement         2348      0.00%      0.00%
system.ruby.L2Cache_Controller.MT.L2_Replacement_clean        33738      0.00%      0.00%
system.ruby.L2Cache_Controller.MT.MEM_Inv            7      0.00%      0.00%
system.ruby.L2Cache_Controller.M_I.L1_GET_INSTR            1      0.00%      0.00%
system.ruby.L2Cache_Controller.M_I.L1_GETS            1      0.00%      0.00%
system.ruby.L2Cache_Controller.M_I.Mem_Ack      1814930      0.00%      0.00%
system.ruby.L2Cache_Controller.MT_I.WB_Data         1726      0.00%      0.00%
system.ruby.L2Cache_Controller.MT_I.Ack_all          629      0.00%      0.00%
system.ruby.L2Cache_Controller.MT_I.MEM_Inv            7      0.00%      0.00%
system.ruby.L2Cache_Controller.MCT_I.L1_PUTX_old            1      0.00%      0.00%
system.ruby.L2Cache_Controller.MCT_I.WB_Data        20382      0.00%      0.00%
system.ruby.L2Cache_Controller.MCT_I.WB_Data_clean            1      0.00%      0.00%
system.ruby.L2Cache_Controller.MCT_I.Ack_all        13355      0.00%      0.00%
system.ruby.L2Cache_Controller.I_I.Ack          43860      0.00%      0.00%
system.ruby.L2Cache_Controller.I_I.Ack_all        48284      0.00%      0.00%
system.ruby.L2Cache_Controller.S_I.Ack           1367      0.00%      0.00%
system.ruby.L2Cache_Controller.S_I.Ack_all          999      0.00%      0.00%
system.ruby.L2Cache_Controller.ISS.L1_GETS           28      0.00%      0.00%
system.ruby.L2Cache_Controller.ISS.Mem_Data      1334789      0.00%      0.00%
system.ruby.L2Cache_Controller.IS.L1_GET_INSTR            3      0.00%      0.00%
system.ruby.L2Cache_Controller.IS.Mem_Data        46180      0.00%      0.00%
system.ruby.L2Cache_Controller.IM.Mem_Data       443688      0.00%      0.00%
system.ruby.L2Cache_Controller.SS_MB.L1_GETS           60      0.00%      0.00%
system.ruby.L2Cache_Controller.SS_MB.L1_GETX            2      0.00%      0.00%
system.ruby.L2Cache_Controller.SS_MB.L1_UPGRADE            2      0.00%      0.00%
system.ruby.L2Cache_Controller.SS_MB.Exclusive_Unblock        23647      0.00%      0.00%
system.ruby.L2Cache_Controller.MT_MB.L1_GETS          368      0.00%      0.00%
system.ruby.L2Cache_Controller.MT_MB.L1_GETX            2      0.00%      0.00%
system.ruby.L2Cache_Controller.MT_MB.Exclusive_Unblock      4556696      0.00%      0.00%
system.ruby.L2Cache_Controller.MT_IIB.L1_GETS            2      0.00%      0.00%
system.ruby.L2Cache_Controller.MT_IIB.WB_Data        18401      0.00%      0.00%
system.ruby.L2Cache_Controller.MT_IIB.WB_Data_clean         9437      0.00%      0.00%
system.ruby.L2Cache_Controller.MT_IIB.Unblock           31      0.00%      0.00%
system.ruby.L2Cache_Controller.MT_IB.WB_Data           14      0.00%      0.00%
system.ruby.L2Cache_Controller.MT_IB.WB_Data_clean           17      0.00%      0.00%
system.ruby.L2Cache_Controller.MT_SB.Unblock        27838      0.00%      0.00%

---------- End Simulation Statistics   ----------
