
---------- Begin Simulation Statistics ----------
sim_seconds                                  0.461395                       # Number of seconds simulated
sim_ticks                                461394967500                       # Number of ticks simulated
final_tick                               52368428528001                       # Number of ticks from beginning of simulation (restored from checkpoints and never reset)
sim_freq                                 1000000000000                       # Frequency of simulated ticks
host_inst_rate                                 133924                       # Simulator instruction rate (inst/s)
host_op_rate                                   241696                       # Simulator op (including micro ops) rate (op/s)
host_tick_rate                              229858956                       # Simulator tick rate (ticks/s)
host_mem_usage                                1815252                       # Number of bytes of host memory used
host_seconds                                  2007.30                       # Real time elapsed on the host
sim_insts                                   268824599                       # Number of instructions simulated
sim_ops                                     485155107                       # Number of ops (including micro ops) simulated
system.voltage_domain.voltage                       1                       # Voltage in Volts
system.clk_domain.clock                          1000                       # Clock period in ticks
system.mem_ctrls.bytes_read::ruby.dir_cntrl0       415296                       # Number of bytes read from this memory
system.mem_ctrls.bytes_read::total             415296                       # Number of bytes read from this memory
system.mem_ctrls.bytes_written::ruby.dir_cntrl0       137728                       # Number of bytes written to this memory
system.mem_ctrls.bytes_written::total          137728                       # Number of bytes written to this memory
system.mem_ctrls.num_reads::ruby.dir_cntrl0         6489                       # Number of read requests responded to by this memory
system.mem_ctrls.num_reads::total                6489                       # Number of read requests responded to by this memory
system.mem_ctrls.num_writes::ruby.dir_cntrl0         2152                       # Number of write requests responded to by this memory
system.mem_ctrls.num_writes::total               2152                       # Number of write requests responded to by this memory
system.mem_ctrls.bw_read::ruby.dir_cntrl0       900088                       # Total read bandwidth from this memory (bytes/s)
system.mem_ctrls.bw_read::total                900088                       # Total read bandwidth from this memory (bytes/s)
system.mem_ctrls.bw_write::ruby.dir_cntrl0       298503                       # Write bandwidth from this memory (bytes/s)
system.mem_ctrls.bw_write::total               298503                       # Write bandwidth from this memory (bytes/s)
system.mem_ctrls.bw_total::ruby.dir_cntrl0      1198591                       # Total bandwidth to/from this memory (bytes/s)
system.mem_ctrls.bw_total::total              1198591                       # Total bandwidth to/from this memory (bytes/s)
system.mem_ctrls.readReqs                        6489                       # Number of read requests accepted
system.mem_ctrls.writeReqs                       2152                       # Number of write requests accepted
system.mem_ctrls.readBursts                      6489                       # Number of DRAM read bursts, including those serviced by the write queue
system.mem_ctrls.writeBursts                     2152                       # Number of DRAM write bursts, including those merged in the write queue
system.mem_ctrls.bytesReadDRAM                 414848                       # Total number of bytes read from DRAM
system.mem_ctrls.bytesReadWrQ                     448                       # Total number of bytes read from write queue
system.mem_ctrls.bytesWritten                  136320                       # Total number of bytes written to DRAM
system.mem_ctrls.bytesReadSys                  415296                       # Total read bytes from the system interface side
system.mem_ctrls.bytesWrittenSys               137728                       # Total written bytes from the system interface side
system.mem_ctrls.servicedByWrQ                      7                       # Number of DRAM read bursts serviced by the write queue
system.mem_ctrls.mergedWrBursts                     0                       # Number of DRAM write bursts merged with an existing one
system.mem_ctrls.neitherReadNorWriteReqs            0                       # Number of requests that are neither read nor write
system.mem_ctrls.perBankRdBursts::0               226                       # Per bank write bursts
system.mem_ctrls.perBankRdBursts::1               281                       # Per bank write bursts
system.mem_ctrls.perBankRdBursts::2               361                       # Per bank write bursts
system.mem_ctrls.perBankRdBursts::3               387                       # Per bank write bursts
system.mem_ctrls.perBankRdBursts::4               446                       # Per bank write bursts
system.mem_ctrls.perBankRdBursts::5               578                       # Per bank write bursts
system.mem_ctrls.perBankRdBursts::6               470                       # Per bank write bursts
system.mem_ctrls.perBankRdBursts::7               500                       # Per bank write bursts
system.mem_ctrls.perBankRdBursts::8               267                       # Per bank write bursts
system.mem_ctrls.perBankRdBursts::9               329                       # Per bank write bursts
system.mem_ctrls.perBankRdBursts::10              445                       # Per bank write bursts
system.mem_ctrls.perBankRdBursts::11              640                       # Per bank write bursts
system.mem_ctrls.perBankRdBursts::12              318                       # Per bank write bursts
system.mem_ctrls.perBankRdBursts::13              407                       # Per bank write bursts
system.mem_ctrls.perBankRdBursts::14              483                       # Per bank write bursts
system.mem_ctrls.perBankRdBursts::15              344                       # Per bank write bursts
system.mem_ctrls.perBankWrBursts::0                65                       # Per bank write bursts
system.mem_ctrls.perBankWrBursts::1               192                       # Per bank write bursts
system.mem_ctrls.perBankWrBursts::2               128                       # Per bank write bursts
system.mem_ctrls.perBankWrBursts::3               192                       # Per bank write bursts
system.mem_ctrls.perBankWrBursts::4               192                       # Per bank write bursts
system.mem_ctrls.perBankWrBursts::5               157                       # Per bank write bursts
system.mem_ctrls.perBankWrBursts::6               128                       # Per bank write bursts
system.mem_ctrls.perBankWrBursts::7               192                       # Per bank write bursts
system.mem_ctrls.perBankWrBursts::8               192                       # Per bank write bursts
system.mem_ctrls.perBankWrBursts::9               192                       # Per bank write bursts
system.mem_ctrls.perBankWrBursts::10              178                       # Per bank write bursts
system.mem_ctrls.perBankWrBursts::11              128                       # Per bank write bursts
system.mem_ctrls.perBankWrBursts::12                0                       # Per bank write bursts
system.mem_ctrls.perBankWrBursts::13                0                       # Per bank write bursts
system.mem_ctrls.perBankWrBursts::14              130                       # Per bank write bursts
system.mem_ctrls.perBankWrBursts::15               64                       # Per bank write bursts
system.mem_ctrls.numRdRetry                         0                       # Number of times read queue was full causing retry
system.mem_ctrls.numWrRetry                         0                       # Number of times write queue was full causing retry
system.mem_ctrls.totGap                  461394902500                       # Total gap between requests
system.mem_ctrls.readPktSize::0                     0                       # Read request sizes (log2)
system.mem_ctrls.readPktSize::1                     0                       # Read request sizes (log2)
system.mem_ctrls.readPktSize::2                     0                       # Read request sizes (log2)
system.mem_ctrls.readPktSize::3                     0                       # Read request sizes (log2)
system.mem_ctrls.readPktSize::4                     0                       # Read request sizes (log2)
system.mem_ctrls.readPktSize::5                     0                       # Read request sizes (log2)
system.mem_ctrls.readPktSize::6                  6489                       # Read request sizes (log2)
system.mem_ctrls.writePktSize::0                    0                       # Write request sizes (log2)
system.mem_ctrls.writePktSize::1                    0                       # Write request sizes (log2)
system.mem_ctrls.writePktSize::2                    0                       # Write request sizes (log2)
system.mem_ctrls.writePktSize::3                    0                       # Write request sizes (log2)
system.mem_ctrls.writePktSize::4                    0                       # Write request sizes (log2)
system.mem_ctrls.writePktSize::5                    0                       # Write request sizes (log2)
system.mem_ctrls.writePktSize::6                 2152                       # Write request sizes (log2)
system.mem_ctrls.rdQLenPdf::0                    6334                       # What read queue length does an incoming req see
system.mem_ctrls.rdQLenPdf::1                     148                       # What read queue length does an incoming req see
system.mem_ctrls.rdQLenPdf::2                       0                       # What read queue length does an incoming req see
system.mem_ctrls.rdQLenPdf::3                       0                       # What read queue length does an incoming req see
system.mem_ctrls.rdQLenPdf::4                       0                       # What read queue length does an incoming req see
system.mem_ctrls.rdQLenPdf::5                       0                       # What read queue length does an incoming req see
system.mem_ctrls.rdQLenPdf::6                       0                       # What read queue length does an incoming req see
system.mem_ctrls.rdQLenPdf::7                       0                       # What read queue length does an incoming req see
system.mem_ctrls.rdQLenPdf::8                       0                       # What read queue length does an incoming req see
system.mem_ctrls.rdQLenPdf::9                       0                       # What read queue length does an incoming req see
system.mem_ctrls.rdQLenPdf::10                      0                       # What read queue length does an incoming req see
system.mem_ctrls.rdQLenPdf::11                      0                       # What read queue length does an incoming req see
system.mem_ctrls.rdQLenPdf::12                      0                       # What read queue length does an incoming req see
system.mem_ctrls.rdQLenPdf::13                      0                       # What read queue length does an incoming req see
system.mem_ctrls.rdQLenPdf::14                      0                       # What read queue length does an incoming req see
system.mem_ctrls.rdQLenPdf::15                      0                       # What read queue length does an incoming req see
system.mem_ctrls.rdQLenPdf::16                      0                       # What read queue length does an incoming req see
system.mem_ctrls.rdQLenPdf::17                      0                       # What read queue length does an incoming req see
system.mem_ctrls.rdQLenPdf::18                      0                       # What read queue length does an incoming req see
system.mem_ctrls.rdQLenPdf::19                      0                       # What read queue length does an incoming req see
system.mem_ctrls.rdQLenPdf::20                      0                       # What read queue length does an incoming req see
system.mem_ctrls.rdQLenPdf::21                      0                       # What read queue length does an incoming req see
system.mem_ctrls.rdQLenPdf::22                      0                       # What read queue length does an incoming req see
system.mem_ctrls.rdQLenPdf::23                      0                       # What read queue length does an incoming req see
system.mem_ctrls.rdQLenPdf::24                      0                       # What read queue length does an incoming req see
system.mem_ctrls.rdQLenPdf::25                      0                       # What read queue length does an incoming req see
system.mem_ctrls.rdQLenPdf::26                      0                       # What read queue length does an incoming req see
system.mem_ctrls.rdQLenPdf::27                      0                       # What read queue length does an incoming req see
system.mem_ctrls.rdQLenPdf::28                      0                       # What read queue length does an incoming req see
system.mem_ctrls.rdQLenPdf::29                      0                       # What read queue length does an incoming req see
system.mem_ctrls.rdQLenPdf::30                      0                       # What read queue length does an incoming req see
system.mem_ctrls.rdQLenPdf::31                      0                       # What read queue length does an incoming req see
system.mem_ctrls.wrQLenPdf::0                       1                       # What write queue length does an incoming req see
system.mem_ctrls.wrQLenPdf::1                       1                       # What write queue length does an incoming req see
system.mem_ctrls.wrQLenPdf::2                       1                       # What write queue length does an incoming req see
system.mem_ctrls.wrQLenPdf::3                       1                       # What write queue length does an incoming req see
system.mem_ctrls.wrQLenPdf::4                       1                       # What write queue length does an incoming req see
system.mem_ctrls.wrQLenPdf::5                       1                       # What write queue length does an incoming req see
system.mem_ctrls.wrQLenPdf::6                       1                       # What write queue length does an incoming req see
system.mem_ctrls.wrQLenPdf::7                       1                       # What write queue length does an incoming req see
system.mem_ctrls.wrQLenPdf::8                       1                       # What write queue length does an incoming req see
system.mem_ctrls.wrQLenPdf::9                       1                       # What write queue length does an incoming req see
system.mem_ctrls.wrQLenPdf::10                      1                       # What write queue length does an incoming req see
system.mem_ctrls.wrQLenPdf::11                      1                       # What write queue length does an incoming req see
system.mem_ctrls.wrQLenPdf::12                      1                       # What write queue length does an incoming req see
system.mem_ctrls.wrQLenPdf::13                      1                       # What write queue length does an incoming req see
system.mem_ctrls.wrQLenPdf::14                      1                       # What write queue length does an incoming req see
system.mem_ctrls.wrQLenPdf::15                     98                       # What write queue length does an incoming req see
system.mem_ctrls.wrQLenPdf::16                    112                       # What write queue length does an incoming req see
system.mem_ctrls.wrQLenPdf::17                    126                       # What write queue length does an incoming req see
system.mem_ctrls.wrQLenPdf::18                    125                       # What write queue length does an incoming req see
system.mem_ctrls.wrQLenPdf::19                    126                       # What write queue length does an incoming req see
system.mem_ctrls.wrQLenPdf::20                    177                       # What write queue length does an incoming req see
system.mem_ctrls.wrQLenPdf::21                    122                       # What write queue length does an incoming req see
system.mem_ctrls.wrQLenPdf::22                    124                       # What write queue length does an incoming req see
system.mem_ctrls.wrQLenPdf::23                    126                       # What write queue length does an incoming req see
system.mem_ctrls.wrQLenPdf::24                    110                       # What write queue length does an incoming req see
system.mem_ctrls.wrQLenPdf::25                    114                       # What write queue length does an incoming req see
system.mem_ctrls.wrQLenPdf::26                    130                       # What write queue length does an incoming req see
system.mem_ctrls.wrQLenPdf::27                    108                       # What write queue length does an incoming req see
system.mem_ctrls.wrQLenPdf::28                    104                       # What write queue length does an incoming req see
system.mem_ctrls.wrQLenPdf::29                    105                       # What write queue length does an incoming req see
system.mem_ctrls.wrQLenPdf::30                    105                       # What write queue length does an incoming req see
system.mem_ctrls.wrQLenPdf::31                    111                       # What write queue length does an incoming req see
system.mem_ctrls.wrQLenPdf::32                    104                       # What write queue length does an incoming req see
system.mem_ctrls.wrQLenPdf::33                      2                       # What write queue length does an incoming req see
system.mem_ctrls.wrQLenPdf::34                      2                       # What write queue length does an incoming req see
system.mem_ctrls.wrQLenPdf::35                      2                       # What write queue length does an incoming req see
system.mem_ctrls.wrQLenPdf::36                      2                       # What write queue length does an incoming req see
system.mem_ctrls.wrQLenPdf::37                      1                       # What write queue length does an incoming req see
system.mem_ctrls.wrQLenPdf::38                      1                       # What write queue length does an incoming req see
system.mem_ctrls.wrQLenPdf::39                      0                       # What write queue length does an incoming req see
system.mem_ctrls.wrQLenPdf::40                      0                       # What write queue length does an incoming req see
system.mem_ctrls.wrQLenPdf::41                      0                       # What write queue length does an incoming req see
system.mem_ctrls.wrQLenPdf::42                      0                       # What write queue length does an incoming req see
system.mem_ctrls.wrQLenPdf::43                      0                       # What write queue length does an incoming req see
system.mem_ctrls.wrQLenPdf::44                      0                       # What write queue length does an incoming req see
system.mem_ctrls.wrQLenPdf::45                      0                       # What write queue length does an incoming req see
system.mem_ctrls.wrQLenPdf::46                      0                       # What write queue length does an incoming req see
system.mem_ctrls.wrQLenPdf::47                      0                       # What write queue length does an incoming req see
system.mem_ctrls.wrQLenPdf::48                      0                       # What write queue length does an incoming req see
system.mem_ctrls.wrQLenPdf::49                      0                       # What write queue length does an incoming req see
system.mem_ctrls.wrQLenPdf::50                      0                       # What write queue length does an incoming req see
system.mem_ctrls.wrQLenPdf::51                      0                       # What write queue length does an incoming req see
system.mem_ctrls.wrQLenPdf::52                      0                       # What write queue length does an incoming req see
system.mem_ctrls.wrQLenPdf::53                      0                       # What write queue length does an incoming req see
system.mem_ctrls.wrQLenPdf::54                      0                       # What write queue length does an incoming req see
system.mem_ctrls.wrQLenPdf::55                      0                       # What write queue length does an incoming req see
system.mem_ctrls.wrQLenPdf::56                      0                       # What write queue length does an incoming req see
system.mem_ctrls.wrQLenPdf::57                      0                       # What write queue length does an incoming req see
system.mem_ctrls.wrQLenPdf::58                      0                       # What write queue length does an incoming req see
system.mem_ctrls.wrQLenPdf::59                      0                       # What write queue length does an incoming req see
system.mem_ctrls.wrQLenPdf::60                      0                       # What write queue length does an incoming req see
system.mem_ctrls.wrQLenPdf::61                      0                       # What write queue length does an incoming req see
system.mem_ctrls.wrQLenPdf::62                      0                       # What write queue length does an incoming req see
system.mem_ctrls.wrQLenPdf::63                      0                       # What write queue length does an incoming req see
system.mem_ctrls.bytesPerActivate::samples         2830                       # Bytes accessed per row activation
system.mem_ctrls.bytesPerActivate::mean    194.804240                       # Bytes accessed per row activation
system.mem_ctrls.bytesPerActivate::gmean   118.730592                       # Bytes accessed per row activation
system.mem_ctrls.bytesPerActivate::stdev   263.937920                       # Bytes accessed per row activation
system.mem_ctrls.bytesPerActivate::0-127         1493     52.76%     52.76% # Bytes accessed per row activation
system.mem_ctrls.bytesPerActivate::128-255          831     29.36%     82.12% # Bytes accessed per row activation
system.mem_ctrls.bytesPerActivate::256-383          137      4.84%     86.96% # Bytes accessed per row activation
system.mem_ctrls.bytesPerActivate::384-511           62      2.19%     89.15% # Bytes accessed per row activation
system.mem_ctrls.bytesPerActivate::512-639           38      1.34%     90.49% # Bytes accessed per row activation
system.mem_ctrls.bytesPerActivate::640-767           35      1.24%     91.73% # Bytes accessed per row activation
system.mem_ctrls.bytesPerActivate::768-895           20      0.71%     92.44% # Bytes accessed per row activation
system.mem_ctrls.bytesPerActivate::896-1023           14      0.49%     92.93% # Bytes accessed per row activation
system.mem_ctrls.bytesPerActivate::1024-1151          200      7.07%    100.00% # Bytes accessed per row activation
system.mem_ctrls.bytesPerActivate::total         2830                       # Bytes accessed per row activation
system.mem_ctrls.rdPerTurnAround::samples          103                       # Reads before turning the bus around for writes
system.mem_ctrls.rdPerTurnAround::mean     191.718447                       # Reads before turning the bus around for writes
system.mem_ctrls.rdPerTurnAround::stdev   1639.062922                       # Reads before turning the bus around for writes
system.mem_ctrls.rdPerTurnAround::0-1023          101     98.06%     98.06% # Reads before turning the bus around for writes
system.mem_ctrls.rdPerTurnAround::2048-3071            1      0.97%     99.03% # Reads before turning the bus around for writes
system.mem_ctrls.rdPerTurnAround::16384-17407            1      0.97%    100.00% # Reads before turning the bus around for writes
system.mem_ctrls.rdPerTurnAround::total           103                       # Reads before turning the bus around for writes
system.mem_ctrls.wrPerTurnAround::samples          103                       # Writes before turning the bus around for reads
system.mem_ctrls.wrPerTurnAround::mean      20.679612                       # Writes before turning the bus around for reads
system.mem_ctrls.wrPerTurnAround::gmean     20.582702                       # Writes before turning the bus around for reads
system.mem_ctrls.wrPerTurnAround::stdev      2.073236                       # Writes before turning the bus around for reads
system.mem_ctrls.wrPerTurnAround::16                4      3.88%      3.88% # Writes before turning the bus around for reads
system.mem_ctrls.wrPerTurnAround::18                1      0.97%      4.85% # Writes before turning the bus around for reads
system.mem_ctrls.wrPerTurnAround::19               23     22.33%     27.18% # Writes before turning the bus around for reads
system.mem_ctrls.wrPerTurnAround::20               16     15.53%     42.72% # Writes before turning the bus around for reads
system.mem_ctrls.wrPerTurnAround::21               38     36.89%     79.61% # Writes before turning the bus around for reads
system.mem_ctrls.wrPerTurnAround::22                7      6.80%     86.41% # Writes before turning the bus around for reads
system.mem_ctrls.wrPerTurnAround::23               11     10.68%     97.09% # Writes before turning the bus around for reads
system.mem_ctrls.wrPerTurnAround::27                1      0.97%     98.06% # Writes before turning the bus around for reads
system.mem_ctrls.wrPerTurnAround::29                1      0.97%     99.03% # Writes before turning the bus around for reads
system.mem_ctrls.wrPerTurnAround::30                1      0.97%    100.00% # Writes before turning the bus around for reads
system.mem_ctrls.wrPerTurnAround::total           103                       # Writes before turning the bus around for reads
system.mem_ctrls.totQLat                     60714249                       # Total ticks spent queuing
system.mem_ctrls.totMemAccLat               182251749                       # Total ticks spent from burst creation until serviced by the DRAM
system.mem_ctrls.totBusLat                   32410000                       # Total ticks spent in databus transfers
system.mem_ctrls.avgQLat                      9366.59                       # Average queueing delay per DRAM burst
system.mem_ctrls.avgBusLat                    5000.00                       # Average bus latency per DRAM burst
system.mem_ctrls.avgMemAccLat                28116.59                       # Average memory access latency per DRAM burst
system.mem_ctrls.avgRdBW                         0.90                       # Average DRAM read bandwidth in MiByte/s
system.mem_ctrls.avgWrBW                         0.30                       # Average achieved write bandwidth in MiByte/s
system.mem_ctrls.avgRdBWSys                      0.90                       # Average system read bandwidth in MiByte/s
system.mem_ctrls.avgWrBWSys                      0.30                       # Average system write bandwidth in MiByte/s
system.mem_ctrls.peakBW                      12800.00                       # Theoretical peak bandwidth in MiByte/s
system.mem_ctrls.busUtil                         0.01                       # Data bus utilization in percentage
system.mem_ctrls.busUtilRead                     0.01                       # Data bus utilization in percentage for reads
system.mem_ctrls.busUtilWrite                    0.00                       # Data bus utilization in percentage for writes
system.mem_ctrls.avgRdQLen                       1.00                       # Average read queue length when enqueuing
system.mem_ctrls.avgWrQLen                      28.89                       # Average write queue length when enqueuing
system.mem_ctrls.readRowHits                     3808                       # Number of row buffer hits during reads
system.mem_ctrls.writeRowHits                    1974                       # Number of row buffer hits during writes
system.mem_ctrls.readRowHitRate                 58.75                       # Row buffer hit rate for reads
system.mem_ctrls.writeRowHitRate                91.73                       # Row buffer hit rate for writes
system.mem_ctrls.avgGap                   53396007.70                       # Average gap between requests
system.mem_ctrls.pageHitRate                    66.97                       # Row buffer hit rate, read and write combined
system.mem_ctrls_0.actEnergy                 27193320                       # Energy for activate commands per rank (pJ)
system.mem_ctrls_0.preEnergy                 14837625                       # Energy for precharge commands per rank (pJ)
system.mem_ctrls_0.readEnergy                89793600                       # Energy for read commands per rank (pJ)
system.mem_ctrls_0.writeEnergy                8074080                       # Energy for write commands per rank (pJ)
system.mem_ctrls_0.refreshEnergy          30347809440                       # Energy for refresh commands per rank (pJ)
system.mem_ctrls_0.actBackEnergy          12613902210                       # Energy for active background per rank (pJ)
system.mem_ctrls_0.preBackEnergy         267717330750                       # Energy for precharge background per rank (pJ)
system.mem_ctrls_0.totalEnergy           310818941025                       # Total energy per rank (pJ)
system.mem_ctrls_0.averagePower            668.950145                       # Core power per rank (mW)
system.mem_ctrls_0.memoryStateTime::IDLE 444063525500                       # Time in different power states
system.mem_ctrls_0.memoryStateTime::REF   15407080000                       # Time in different power states
system.mem_ctrls_0.memoryStateTime::PRE_PDN            0                       # Time in different power states
system.mem_ctrls_0.memoryStateTime::ACT    1924453000                       # Time in different power states
system.mem_ctrls_0.memoryStateTime::ACT_PDN            0                       # Time in different power states
system.mem_ctrls_1.actEnergy                 22778280                       # Energy for activate commands per rank (pJ)
system.mem_ctrls_1.preEnergy                 12428625                       # Energy for precharge commands per rank (pJ)
system.mem_ctrls_1.readEnergy                79497600                       # Energy for read commands per rank (pJ)
system.mem_ctrls_1.writeEnergy                5728320                       # Energy for write commands per rank (pJ)
system.mem_ctrls_1.refreshEnergy          30347809440                       # Energy for refresh commands per rank (pJ)
system.mem_ctrls_1.actBackEnergy          12596483295                       # Energy for active background per rank (pJ)
system.mem_ctrls_1.preBackEnergy         267732610500                       # Energy for precharge background per rank (pJ)
system.mem_ctrls_1.totalEnergy           310797336060                       # Total energy per rank (pJ)
system.mem_ctrls_1.averagePower            668.903647                       # Core power per rank (mW)
system.mem_ctrls_1.memoryStateTime::IDLE 444059436000                       # Time in different power states
system.mem_ctrls_1.memoryStateTime::REF   15407080000                       # Time in different power states
system.mem_ctrls_1.memoryStateTime::PRE_PDN            0                       # Time in different power states
system.mem_ctrls_1.memoryStateTime::ACT    1931072750                       # Time in different power states
system.mem_ctrls_1.memoryStateTime::ACT_PDN            0                       # Time in different power states
system.cpu_voltage_domain.voltage                   1                       # Voltage in Volts
system.cpu_clk_domain.clock                       500                       # Clock period in ticks
system.cpu0.apic_clk_domain.clock                8000                       # Clock period in ticks
system.cpu0.numCycles                       926069808                       # number of cpu cycles simulated
system.cpu0.numWorkItemsStarted                     0                       # number of work items this cpu started
system.cpu0.numWorkItemsCompleted                   0                       # number of work items this cpu completed
system.cpu0.kern.inst.arm                           0                       # number of arm instructions executed
system.cpu0.kern.inst.quiesce                       0                       # number of quiesce instructions executed
system.cpu0.committedInsts                     395823                       # Number of instructions committed
system.cpu0.committedOps                       834572                       # Number of ops (including micro ops) committed
system.cpu0.num_int_alu_accesses               819733                       # Number of integer alu accesses
system.cpu0.num_fp_alu_accesses                   387                       # Number of float alu accesses
system.cpu0.num_func_calls                      24577                       # number of times a function call or return occured
system.cpu0.num_conditional_control_insts        54891                       # number of instructions that are conditional controls
system.cpu0.num_int_insts                      819733                       # number of integer instructions
system.cpu0.num_fp_insts                          387                       # number of float instructions
system.cpu0.num_int_register_reads            1657756                       # number of times the integer registers were read
system.cpu0.num_int_register_writes            668958                       # number of times the integer registers were written
system.cpu0.num_fp_register_reads                 622                       # number of times the floating registers were read
system.cpu0.num_fp_register_writes                354                       # number of times the floating registers were written
system.cpu0.num_cc_register_reads              440315                       # number of times the CC registers were read
system.cpu0.num_cc_register_writes             255573                       # number of times the CC registers were written
system.cpu0.num_mem_refs                       199424                       # number of memory refs
system.cpu0.num_load_insts                     121695                       # Number of load instructions
system.cpu0.num_store_insts                     77729                       # Number of store instructions
system.cpu0.num_idle_cycles              924298228.577045                       # Number of idle cycles
system.cpu0.num_busy_cycles              1771579.422955                       # Number of busy cycles
system.cpu0.not_idle_fraction                0.001913                       # Percentage of non-idle cycles
system.cpu0.idle_fraction                    0.998087                       # Percentage of idle cycles
system.cpu0.Branches                            86906                       # Number of branches fetched
system.cpu0.op_class::No_OpClass                 9544      1.14%      1.14% # Class of executed instruction
system.cpu0.op_class::IntAlu                   621288     74.44%     75.59% # Class of executed instruction
system.cpu0.op_class::IntMult                    1664      0.20%     75.78% # Class of executed instruction
system.cpu0.op_class::IntDiv                     2436      0.29%     76.08% # Class of executed instruction
system.cpu0.op_class::FloatAdd                    239      0.03%     76.11% # Class of executed instruction
system.cpu0.op_class::FloatCmp                      0      0.00%     76.11% # Class of executed instruction
system.cpu0.op_class::FloatCvt                      0      0.00%     76.11% # Class of executed instruction
system.cpu0.op_class::FloatMult                     0      0.00%     76.11% # Class of executed instruction
system.cpu0.op_class::FloatDiv                      0      0.00%     76.11% # Class of executed instruction
system.cpu0.op_class::FloatSqrt                     0      0.00%     76.11% # Class of executed instruction
system.cpu0.op_class::SimdAdd                       0      0.00%     76.11% # Class of executed instruction
system.cpu0.op_class::SimdAddAcc                    0      0.00%     76.11% # Class of executed instruction
system.cpu0.op_class::SimdAlu                       0      0.00%     76.11% # Class of executed instruction
system.cpu0.op_class::SimdCmp                       0      0.00%     76.11% # Class of executed instruction
system.cpu0.op_class::SimdCvt                       0      0.00%     76.11% # Class of executed instruction
system.cpu0.op_class::SimdMisc                      0      0.00%     76.11% # Class of executed instruction
system.cpu0.op_class::SimdMult                      0      0.00%     76.11% # Class of executed instruction
system.cpu0.op_class::SimdMultAcc                   0      0.00%     76.11% # Class of executed instruction
system.cpu0.op_class::SimdShift                     0      0.00%     76.11% # Class of executed instruction
system.cpu0.op_class::SimdShiftAcc                  0      0.00%     76.11% # Class of executed instruction
system.cpu0.op_class::SimdSqrt                      0      0.00%     76.11% # Class of executed instruction
system.cpu0.op_class::SimdFloatAdd                  0      0.00%     76.11% # Class of executed instruction
system.cpu0.op_class::SimdFloatAlu                  0      0.00%     76.11% # Class of executed instruction
system.cpu0.op_class::SimdFloatCmp                  0      0.00%     76.11% # Class of executed instruction
system.cpu0.op_class::SimdFloatCvt                  0      0.00%     76.11% # Class of executed instruction
system.cpu0.op_class::SimdFloatDiv                  0      0.00%     76.11% # Class of executed instruction
system.cpu0.op_class::SimdFloatMisc                 0      0.00%     76.11% # Class of executed instruction
system.cpu0.op_class::SimdFloatMult                 0      0.00%     76.11% # Class of executed instruction
system.cpu0.op_class::SimdFloatMultAcc              0      0.00%     76.11% # Class of executed instruction
system.cpu0.op_class::SimdFloatSqrt                 0      0.00%     76.11% # Class of executed instruction
system.cpu0.op_class::MemRead                  121695     14.58%     90.69% # Class of executed instruction
system.cpu0.op_class::MemWrite                  77729      9.31%    100.00% # Class of executed instruction
system.cpu0.op_class::IprAccess                     0      0.00%    100.00% # Class of executed instruction
system.cpu0.op_class::InstPrefetch                  0      0.00%    100.00% # Class of executed instruction
system.cpu0.op_class::total                    834595                       # Class of executed instruction
system.cpu1.apic_clk_domain.clock                8000                       # Clock period in ticks
system.cpu1.numCycles                       924732073                       # number of cpu cycles simulated
system.cpu1.numWorkItemsStarted                     0                       # number of work items this cpu started
system.cpu1.numWorkItemsCompleted                   0                       # number of work items this cpu completed
system.cpu1.kern.inst.arm                           0                       # number of arm instructions executed
system.cpu1.kern.inst.quiesce                       0                       # number of quiesce instructions executed
system.cpu1.committedInsts                  265731471                       # Number of instructions committed
system.cpu1.committedOps                    479158876                       # Number of ops (including micro ops) committed
system.cpu1.num_int_alu_accesses            269531249                       # Number of integer alu accesses
system.cpu1.num_fp_alu_accesses             270602519                       # Number of float alu accesses
system.cpu1.num_func_calls                    9864106                       # number of times a function call or return occured
system.cpu1.num_conditional_control_insts     14996688                       # number of instructions that are conditional controls
system.cpu1.num_int_insts                   269531249                       # number of integer instructions
system.cpu1.num_fp_insts                    270602519                       # number of float instructions
system.cpu1.num_int_register_reads          512470431                       # number of times the integer registers were read
system.cpu1.num_int_register_writes         176037606                       # number of times the integer registers were written
system.cpu1.num_fp_register_reads           446698678                       # number of times the floating registers were read
system.cpu1.num_fp_register_writes          249457043                       # number of times the floating registers were written
system.cpu1.num_cc_register_reads           106888064                       # number of times the CC registers were read
system.cpu1.num_cc_register_writes           82959916                       # number of times the CC registers were written
system.cpu1.num_mem_refs                     84019102                       # number of memory refs
system.cpu1.num_load_insts                   62864257                       # Number of load instructions
system.cpu1.num_store_insts                  21154845                       # Number of store instructions
system.cpu1.num_idle_cycles              3499800.340087                       # Number of idle cycles
system.cpu1.num_busy_cycles              921232272.659913                       # Number of busy cycles
system.cpu1.not_idle_fraction                0.996215                       # Percentage of non-idle cycles
system.cpu1.idle_fraction                    0.003785                       # Percentage of idle cycles
system.cpu1.Branches                         27044023                       # Number of branches fetched
system.cpu1.op_class::No_OpClass                10607      0.00%      0.00% # Class of executed instruction
system.cpu1.op_class::IntAlu                244757214     51.08%     51.08% # Class of executed instruction
system.cpu1.op_class::IntMult                    2391      0.00%     51.08% # Class of executed instruction
system.cpu1.op_class::IntDiv                     1737      0.00%     51.08% # Class of executed instruction
system.cpu1.op_class::FloatAdd              150367922     31.38%     82.47% # Class of executed instruction
system.cpu1.op_class::FloatCmp                      0      0.00%     82.47% # Class of executed instruction
system.cpu1.op_class::FloatCvt                      0      0.00%     82.47% # Class of executed instruction
system.cpu1.op_class::FloatMult                     0      0.00%     82.47% # Class of executed instruction
system.cpu1.op_class::FloatDiv                      0      0.00%     82.47% # Class of executed instruction
system.cpu1.op_class::FloatSqrt                     0      0.00%     82.47% # Class of executed instruction
system.cpu1.op_class::SimdAdd                       0      0.00%     82.47% # Class of executed instruction
system.cpu1.op_class::SimdAddAcc                    0      0.00%     82.47% # Class of executed instruction
system.cpu1.op_class::SimdAlu                       0      0.00%     82.47% # Class of executed instruction
system.cpu1.op_class::SimdCmp                       0      0.00%     82.47% # Class of executed instruction
system.cpu1.op_class::SimdCvt                       0      0.00%     82.47% # Class of executed instruction
system.cpu1.op_class::SimdMisc                      0      0.00%     82.47% # Class of executed instruction
system.cpu1.op_class::SimdMult                      0      0.00%     82.47% # Class of executed instruction
system.cpu1.op_class::SimdMultAcc                   0      0.00%     82.47% # Class of executed instruction
system.cpu1.op_class::SimdShift                     0      0.00%     82.47% # Class of executed instruction
system.cpu1.op_class::SimdShiftAcc                  0      0.00%     82.47% # Class of executed instruction
system.cpu1.op_class::SimdSqrt                      0      0.00%     82.47% # Class of executed instruction
system.cpu1.op_class::SimdFloatAdd                  0      0.00%     82.47% # Class of executed instruction
system.cpu1.op_class::SimdFloatAlu                  0      0.00%     82.47% # Class of executed instruction
system.cpu1.op_class::SimdFloatCmp                  0      0.00%     82.47% # Class of executed instruction
system.cpu1.op_class::SimdFloatCvt                  0      0.00%     82.47% # Class of executed instruction
system.cpu1.op_class::SimdFloatDiv                  0      0.00%     82.47% # Class of executed instruction
system.cpu1.op_class::SimdFloatMisc                 0      0.00%     82.47% # Class of executed instruction
system.cpu1.op_class::SimdFloatMult                 0      0.00%     82.47% # Class of executed instruction
system.cpu1.op_class::SimdFloatMultAcc              0      0.00%     82.47% # Class of executed instruction
system.cpu1.op_class::SimdFloatSqrt                 0      0.00%     82.47% # Class of executed instruction
system.cpu1.op_class::MemRead                62864257     13.12%     95.59% # Class of executed instruction
system.cpu1.op_class::MemWrite               21154845      4.41%    100.00% # Class of executed instruction
system.cpu1.op_class::IprAccess                     0      0.00%    100.00% # Class of executed instruction
system.cpu1.op_class::InstPrefetch                  0      0.00%    100.00% # Class of executed instruction
system.cpu1.op_class::total                 479158973                       # Class of executed instruction
system.cpu2.apic_clk_domain.clock                8000                       # Clock period in ticks
system.cpu2.numCycles                       923649526                       # number of cpu cycles simulated
system.cpu2.numWorkItemsStarted                     0                       # number of work items this cpu started
system.cpu2.numWorkItemsCompleted                   0                       # number of work items this cpu completed
system.cpu2.kern.inst.arm                           0                       # number of arm instructions executed
system.cpu2.kern.inst.quiesce                       0                       # number of quiesce instructions executed
system.cpu2.committedInsts                     367529                       # Number of instructions committed
system.cpu2.committedOps                       778642                       # Number of ops (including micro ops) committed
system.cpu2.num_int_alu_accesses               763624                       # Number of integer alu accesses
system.cpu2.num_fp_alu_accesses                    33                       # Number of float alu accesses
system.cpu2.num_func_calls                      21503                       # number of times a function call or return occured
system.cpu2.num_conditional_control_insts        56149                       # number of instructions that are conditional controls
system.cpu2.num_int_insts                      763624                       # number of integer instructions
system.cpu2.num_fp_insts                           33                       # number of float instructions
system.cpu2.num_int_register_reads            1540290                       # number of times the integer registers were read
system.cpu2.num_int_register_writes            627990                       # number of times the integer registers were written
system.cpu2.num_fp_register_reads                  14                       # number of times the floating registers were read
system.cpu2.num_fp_register_writes                 25                       # number of times the floating registers were written
system.cpu2.num_cc_register_reads              435096                       # number of times the CC registers were read
system.cpu2.num_cc_register_writes             234019                       # number of times the CC registers were written
system.cpu2.num_mem_refs                       183556                       # number of memory refs
system.cpu2.num_load_insts                     113595                       # Number of load instructions
system.cpu2.num_store_insts                     69961                       # Number of store instructions
system.cpu2.num_idle_cycles              921942149.037977                       # Number of idle cycles
system.cpu2.num_busy_cycles              1707376.962023                       # Number of busy cycles
system.cpu2.not_idle_fraction                0.001849                       # Percentage of non-idle cycles
system.cpu2.idle_fraction                    0.998151                       # Percentage of idle cycles
system.cpu2.Branches                            84517                       # Number of branches fetched
system.cpu2.op_class::No_OpClass                11644      1.50%      1.50% # Class of executed instruction
system.cpu2.op_class::IntAlu                   577884     74.22%     75.71% # Class of executed instruction
system.cpu2.op_class::IntMult                    1574      0.20%     75.91% # Class of executed instruction
system.cpu2.op_class::IntDiv                     3971      0.51%     76.42% # Class of executed instruction
system.cpu2.op_class::FloatAdd                     17      0.00%     76.43% # Class of executed instruction
system.cpu2.op_class::FloatCmp                      0      0.00%     76.43% # Class of executed instruction
system.cpu2.op_class::FloatCvt                      0      0.00%     76.43% # Class of executed instruction
system.cpu2.op_class::FloatMult                     0      0.00%     76.43% # Class of executed instruction
system.cpu2.op_class::FloatDiv                      0      0.00%     76.43% # Class of executed instruction
system.cpu2.op_class::FloatSqrt                     0      0.00%     76.43% # Class of executed instruction
system.cpu2.op_class::SimdAdd                       0      0.00%     76.43% # Class of executed instruction
system.cpu2.op_class::SimdAddAcc                    0      0.00%     76.43% # Class of executed instruction
system.cpu2.op_class::SimdAlu                       0      0.00%     76.43% # Class of executed instruction
system.cpu2.op_class::SimdCmp                       0      0.00%     76.43% # Class of executed instruction
system.cpu2.op_class::SimdCvt                       0      0.00%     76.43% # Class of executed instruction
system.cpu2.op_class::SimdMisc                      0      0.00%     76.43% # Class of executed instruction
system.cpu2.op_class::SimdMult                      0      0.00%     76.43% # Class of executed instruction
system.cpu2.op_class::SimdMultAcc                   0      0.00%     76.43% # Class of executed instruction
system.cpu2.op_class::SimdShift                     0      0.00%     76.43% # Class of executed instruction
system.cpu2.op_class::SimdShiftAcc                  0      0.00%     76.43% # Class of executed instruction
system.cpu2.op_class::SimdSqrt                      0      0.00%     76.43% # Class of executed instruction
system.cpu2.op_class::SimdFloatAdd                  0      0.00%     76.43% # Class of executed instruction
system.cpu2.op_class::SimdFloatAlu                  0      0.00%     76.43% # Class of executed instruction
system.cpu2.op_class::SimdFloatCmp                  0      0.00%     76.43% # Class of executed instruction
system.cpu2.op_class::SimdFloatCvt                  0      0.00%     76.43% # Class of executed instruction
system.cpu2.op_class::SimdFloatDiv                  0      0.00%     76.43% # Class of executed instruction
system.cpu2.op_class::SimdFloatMisc                 0      0.00%     76.43% # Class of executed instruction
system.cpu2.op_class::SimdFloatMult                 0      0.00%     76.43% # Class of executed instruction
system.cpu2.op_class::SimdFloatMultAcc              0      0.00%     76.43% # Class of executed instruction
system.cpu2.op_class::SimdFloatSqrt                 0      0.00%     76.43% # Class of executed instruction
system.cpu2.op_class::MemRead                  113595     14.59%     91.02% # Class of executed instruction
system.cpu2.op_class::MemWrite                  69961      8.98%    100.00% # Class of executed instruction
system.cpu2.op_class::IprAccess                     0      0.00%    100.00% # Class of executed instruction
system.cpu2.op_class::InstPrefetch                  0      0.00%    100.00% # Class of executed instruction
system.cpu2.op_class::total                    778646                       # Class of executed instruction
system.cpu3.apic_clk_domain.clock                8000                       # Clock period in ticks
system.cpu3.numCycles                       921018699                       # number of cpu cycles simulated
system.cpu3.numWorkItemsStarted                     0                       # number of work items this cpu started
system.cpu3.numWorkItemsCompleted                   0                       # number of work items this cpu completed
system.cpu3.kern.inst.arm                           0                       # number of arm instructions executed
system.cpu3.kern.inst.quiesce                       0                       # number of quiesce instructions executed
system.cpu3.committedInsts                    1002405                       # Number of instructions committed
system.cpu3.committedOps                      1940635                       # Number of ops (including micro ops) committed
system.cpu3.num_int_alu_accesses              1911015                       # Number of integer alu accesses
system.cpu3.num_fp_alu_accesses                  1778                       # Number of float alu accesses
system.cpu3.num_func_calls                      40770                       # number of times a function call or return occured
system.cpu3.num_conditional_control_insts       157365                       # number of instructions that are conditional controls
system.cpu3.num_int_insts                     1911015                       # number of integer instructions
system.cpu3.num_fp_insts                         1778                       # number of float instructions
system.cpu3.num_int_register_reads            3888774                       # number of times the integer registers were read
system.cpu3.num_int_register_writes           1556526                       # number of times the integer registers were written
system.cpu3.num_fp_register_reads                2988                       # number of times the floating registers were read
system.cpu3.num_fp_register_writes               1416                       # number of times the floating registers were written
system.cpu3.num_cc_register_reads             1112417                       # number of times the CC registers were read
system.cpu3.num_cc_register_writes             647805                       # number of times the CC registers were written
system.cpu3.num_mem_refs                       444360                       # number of memory refs
system.cpu3.num_load_insts                     273768                       # Number of load instructions
system.cpu3.num_store_insts                    170592                       # Number of store instructions
system.cpu3.num_idle_cycles              916995586.957718                       # Number of idle cycles
system.cpu3.num_busy_cycles              4023112.042282                       # Number of busy cycles
system.cpu3.not_idle_fraction                0.004368                       # Percentage of non-idle cycles
system.cpu3.idle_fraction                    0.995632                       # Percentage of idle cycles
system.cpu3.Branches                           213690                       # Number of branches fetched
system.cpu3.op_class::No_OpClass                19819      1.02%      1.02% # Class of executed instruction
system.cpu3.op_class::IntAlu                  1467009     75.59%     76.61% # Class of executed instruction
system.cpu3.op_class::IntMult                    2353      0.12%     76.73% # Class of executed instruction
system.cpu3.op_class::IntDiv                     5840      0.30%     77.03% # Class of executed instruction
system.cpu3.op_class::FloatAdd                   1344      0.07%     77.10% # Class of executed instruction
system.cpu3.op_class::FloatCmp                      0      0.00%     77.10% # Class of executed instruction
system.cpu3.op_class::FloatCvt                      0      0.00%     77.10% # Class of executed instruction
system.cpu3.op_class::FloatMult                     0      0.00%     77.10% # Class of executed instruction
system.cpu3.op_class::FloatDiv                      0      0.00%     77.10% # Class of executed instruction
system.cpu3.op_class::FloatSqrt                     0      0.00%     77.10% # Class of executed instruction
system.cpu3.op_class::SimdAdd                       0      0.00%     77.10% # Class of executed instruction
system.cpu3.op_class::SimdAddAcc                    0      0.00%     77.10% # Class of executed instruction
system.cpu3.op_class::SimdAlu                       0      0.00%     77.10% # Class of executed instruction
system.cpu3.op_class::SimdCmp                       0      0.00%     77.10% # Class of executed instruction
system.cpu3.op_class::SimdCvt                       0      0.00%     77.10% # Class of executed instruction
system.cpu3.op_class::SimdMisc                      0      0.00%     77.10% # Class of executed instruction
system.cpu3.op_class::SimdMult                      0      0.00%     77.10% # Class of executed instruction
system.cpu3.op_class::SimdMultAcc                   0      0.00%     77.10% # Class of executed instruction
system.cpu3.op_class::SimdShift                     0      0.00%     77.10% # Class of executed instruction
system.cpu3.op_class::SimdShiftAcc                  0      0.00%     77.10% # Class of executed instruction
system.cpu3.op_class::SimdSqrt                      0      0.00%     77.10% # Class of executed instruction
system.cpu3.op_class::SimdFloatAdd                  0      0.00%     77.10% # Class of executed instruction
system.cpu3.op_class::SimdFloatAlu                  0      0.00%     77.10% # Class of executed instruction
system.cpu3.op_class::SimdFloatCmp                  0      0.00%     77.10% # Class of executed instruction
system.cpu3.op_class::SimdFloatCvt                  0      0.00%     77.10% # Class of executed instruction
system.cpu3.op_class::SimdFloatDiv                  0      0.00%     77.10% # Class of executed instruction
system.cpu3.op_class::SimdFloatMisc                 0      0.00%     77.10% # Class of executed instruction
system.cpu3.op_class::SimdFloatMult                 0      0.00%     77.10% # Class of executed instruction
system.cpu3.op_class::SimdFloatMultAcc              0      0.00%     77.10% # Class of executed instruction
system.cpu3.op_class::SimdFloatSqrt                 0      0.00%     77.10% # Class of executed instruction
system.cpu3.op_class::MemRead                  273768     14.11%     91.21% # Class of executed instruction
system.cpu3.op_class::MemWrite                 170592      8.79%    100.00% # Class of executed instruction
system.cpu3.op_class::IprAccess                     0      0.00%    100.00% # Class of executed instruction
system.cpu3.op_class::InstPrefetch                  0      0.00%    100.00% # Class of executed instruction
system.cpu3.op_class::total                   1940725                       # Class of executed instruction
system.iobus.trans_dist::ReadReq                  101                       # Transaction distribution
system.iobus.trans_dist::ReadResp                 101                       # Transaction distribution
system.iobus.trans_dist::WriteReq                 565                       # Transaction distribution
system.iobus.trans_dist::WriteResp                565                       # Transaction distribution
system.iobus.trans_dist::MessageReq                18                       # Transaction distribution
system.iobus.trans_dist::MessageResp               18                       # Transaction distribution
system.iobus.pkt_count_system.pc.south_bridge.io_apic.int_master::system.ruby.l1_cntrl0.sequencer.pio-slave-port            4                       # Packet count per connected master and slave (bytes)
system.iobus.pkt_count_system.pc.south_bridge.io_apic.int_master::system.ruby.l1_cntrl1.sequencer.pio-slave-port            4                       # Packet count per connected master and slave (bytes)
system.iobus.pkt_count_system.pc.south_bridge.io_apic.int_master::system.ruby.l1_cntrl2.sequencer.pio-slave-port            4                       # Packet count per connected master and slave (bytes)
system.iobus.pkt_count_system.pc.south_bridge.io_apic.int_master::system.ruby.l1_cntrl3.sequencer.pio-slave-port            2                       # Packet count per connected master and slave (bytes)
system.iobus.pkt_count_system.pc.south_bridge.io_apic.int_master::total           14                       # Packet count per connected master and slave (bytes)
system.iobus.pkt_count_system.ruby.l1_cntrl0.sequencer.mem-master-port::system.pc.south_bridge.ide.pio           46                       # Packet count per connected master and slave (bytes)
system.iobus.pkt_count_system.ruby.l1_cntrl0.sequencer.mem-master-port::system.pc.south_bridge.io_apic.pio            8                       # Packet count per connected master and slave (bytes)
system.iobus.pkt_count_system.ruby.l1_cntrl0.sequencer.mem-master-port::system.ruby.l1_cntrl0.sequencer.pio-slave-port          246                       # Packet count per connected master and slave (bytes)
system.iobus.pkt_count_system.ruby.l1_cntrl0.sequencer.mem-master-port::system.ruby.l1_cntrl1.sequencer.pio-slave-port            2                       # Packet count per connected master and slave (bytes)
system.iobus.pkt_count_system.ruby.l1_cntrl0.sequencer.mem-master-port::total          302                       # Packet count per connected master and slave (bytes)
system.iobus.pkt_count_system.ruby.l1_cntrl1.sequencer.mem-master-port::system.pc.south_bridge.ide.pio           12                       # Packet count per connected master and slave (bytes)
system.iobus.pkt_count_system.ruby.l1_cntrl1.sequencer.mem-master-port::system.pc.south_bridge.io_apic.pio            6                       # Packet count per connected master and slave (bytes)
system.iobus.pkt_count_system.ruby.l1_cntrl1.sequencer.mem-master-port::system.pc.com_1.pio           22                       # Packet count per connected master and slave (bytes)
system.iobus.pkt_count_system.ruby.l1_cntrl1.sequencer.mem-master-port::system.ruby.l1_cntrl0.sequencer.pio-slave-port            4                       # Packet count per connected master and slave (bytes)
system.iobus.pkt_count_system.ruby.l1_cntrl1.sequencer.mem-master-port::system.ruby.l1_cntrl1.sequencer.pio-slave-port          270                       # Packet count per connected master and slave (bytes)
system.iobus.pkt_count_system.ruby.l1_cntrl1.sequencer.mem-master-port::system.ruby.l1_cntrl2.sequencer.pio-slave-port            8                       # Packet count per connected master and slave (bytes)
system.iobus.pkt_count_system.ruby.l1_cntrl1.sequencer.mem-master-port::total          322                       # Packet count per connected master and slave (bytes)
system.iobus.pkt_count_system.ruby.l1_cntrl2.sequencer.mem-master-port::system.pc.south_bridge.ide.pio           34                       # Packet count per connected master and slave (bytes)
system.iobus.pkt_count_system.ruby.l1_cntrl2.sequencer.mem-master-port::system.pc.south_bridge.io_apic.pio           14                       # Packet count per connected master and slave (bytes)
system.iobus.pkt_count_system.ruby.l1_cntrl2.sequencer.mem-master-port::system.pc.com_1.pio          162                       # Packet count per connected master and slave (bytes)
system.iobus.pkt_count_system.ruby.l1_cntrl2.sequencer.mem-master-port::system.ruby.l1_cntrl2.sequencer.pio-slave-port          252                       # Packet count per connected master and slave (bytes)
system.iobus.pkt_count_system.ruby.l1_cntrl2.sequencer.mem-master-port::system.ruby.l1_cntrl3.sequencer.pio-slave-port            2                       # Packet count per connected master and slave (bytes)
system.iobus.pkt_count_system.ruby.l1_cntrl2.sequencer.mem-master-port::total          464                       # Packet count per connected master and slave (bytes)
system.iobus.pkt_count_system.ruby.l1_cntrl3.sequencer.mem-master-port::system.pc.south_bridge.io_apic.pio            8                       # Packet count per connected master and slave (bytes)
system.iobus.pkt_count_system.ruby.l1_cntrl3.sequencer.mem-master-port::system.ruby.l1_cntrl0.sequencer.pio-slave-port            2                       # Packet count per connected master and slave (bytes)
system.iobus.pkt_count_system.ruby.l1_cntrl3.sequencer.mem-master-port::system.ruby.l1_cntrl1.sequencer.pio-slave-port            2                       # Packet count per connected master and slave (bytes)
system.iobus.pkt_count_system.ruby.l1_cntrl3.sequencer.mem-master-port::system.ruby.l1_cntrl2.sequencer.pio-slave-port            2                       # Packet count per connected master and slave (bytes)
system.iobus.pkt_count_system.ruby.l1_cntrl3.sequencer.mem-master-port::system.ruby.l1_cntrl3.sequencer.pio-slave-port          252                       # Packet count per connected master and slave (bytes)
system.iobus.pkt_count_system.ruby.l1_cntrl3.sequencer.mem-master-port::total          266                       # Packet count per connected master and slave (bytes)
system.iobus.pkt_count::total                    1368                       # Packet count per connected master and slave (bytes)
system.iobus.pkt_size_system.pc.south_bridge.io_apic.int_master::system.ruby.l1_cntrl0.sequencer.pio-slave-port            8                       # Cumulative packet size per connected master and slave (bytes)
system.iobus.pkt_size_system.pc.south_bridge.io_apic.int_master::system.ruby.l1_cntrl1.sequencer.pio-slave-port            8                       # Cumulative packet size per connected master and slave (bytes)
system.iobus.pkt_size_system.pc.south_bridge.io_apic.int_master::system.ruby.l1_cntrl2.sequencer.pio-slave-port            8                       # Cumulative packet size per connected master and slave (bytes)
system.iobus.pkt_size_system.pc.south_bridge.io_apic.int_master::system.ruby.l1_cntrl3.sequencer.pio-slave-port            4                       # Cumulative packet size per connected master and slave (bytes)
system.iobus.pkt_size_system.pc.south_bridge.io_apic.int_master::total           28                       # Cumulative packet size per connected master and slave (bytes)
system.iobus.pkt_size_system.ruby.l1_cntrl0.sequencer.mem-master-port::system.pc.south_bridge.ide.pio           26                       # Cumulative packet size per connected master and slave (bytes)
system.iobus.pkt_size_system.ruby.l1_cntrl0.sequencer.mem-master-port::system.pc.south_bridge.io_apic.pio           16                       # Cumulative packet size per connected master and slave (bytes)
system.iobus.pkt_size_system.ruby.l1_cntrl0.sequencer.mem-master-port::system.ruby.l1_cntrl0.sequencer.pio-slave-port          492                       # Cumulative packet size per connected master and slave (bytes)
system.iobus.pkt_size_system.ruby.l1_cntrl0.sequencer.mem-master-port::system.ruby.l1_cntrl1.sequencer.pio-slave-port            4                       # Cumulative packet size per connected master and slave (bytes)
system.iobus.pkt_size_system.ruby.l1_cntrl0.sequencer.mem-master-port::total          538                       # Cumulative packet size per connected master and slave (bytes)
system.iobus.pkt_size_system.ruby.l1_cntrl1.sequencer.mem-master-port::system.pc.south_bridge.ide.pio            6                       # Cumulative packet size per connected master and slave (bytes)
system.iobus.pkt_size_system.ruby.l1_cntrl1.sequencer.mem-master-port::system.pc.south_bridge.io_apic.pio           12                       # Cumulative packet size per connected master and slave (bytes)
system.iobus.pkt_size_system.ruby.l1_cntrl1.sequencer.mem-master-port::system.pc.com_1.pio           11                       # Cumulative packet size per connected master and slave (bytes)
system.iobus.pkt_size_system.ruby.l1_cntrl1.sequencer.mem-master-port::system.ruby.l1_cntrl0.sequencer.pio-slave-port            8                       # Cumulative packet size per connected master and slave (bytes)
system.iobus.pkt_size_system.ruby.l1_cntrl1.sequencer.mem-master-port::system.ruby.l1_cntrl1.sequencer.pio-slave-port          540                       # Cumulative packet size per connected master and slave (bytes)
system.iobus.pkt_size_system.ruby.l1_cntrl1.sequencer.mem-master-port::system.ruby.l1_cntrl2.sequencer.pio-slave-port           16                       # Cumulative packet size per connected master and slave (bytes)
system.iobus.pkt_size_system.ruby.l1_cntrl1.sequencer.mem-master-port::total          593                       # Cumulative packet size per connected master and slave (bytes)
system.iobus.pkt_size_system.ruby.l1_cntrl2.sequencer.mem-master-port::system.pc.south_bridge.ide.pio           20                       # Cumulative packet size per connected master and slave (bytes)
system.iobus.pkt_size_system.ruby.l1_cntrl2.sequencer.mem-master-port::system.pc.south_bridge.io_apic.pio           28                       # Cumulative packet size per connected master and slave (bytes)
system.iobus.pkt_size_system.ruby.l1_cntrl2.sequencer.mem-master-port::system.pc.com_1.pio           81                       # Cumulative packet size per connected master and slave (bytes)
system.iobus.pkt_size_system.ruby.l1_cntrl2.sequencer.mem-master-port::system.ruby.l1_cntrl2.sequencer.pio-slave-port          504                       # Cumulative packet size per connected master and slave (bytes)
system.iobus.pkt_size_system.ruby.l1_cntrl2.sequencer.mem-master-port::system.ruby.l1_cntrl3.sequencer.pio-slave-port            4                       # Cumulative packet size per connected master and slave (bytes)
system.iobus.pkt_size_system.ruby.l1_cntrl2.sequencer.mem-master-port::total          637                       # Cumulative packet size per connected master and slave (bytes)
system.iobus.pkt_size_system.ruby.l1_cntrl3.sequencer.mem-master-port::system.pc.south_bridge.io_apic.pio           16                       # Cumulative packet size per connected master and slave (bytes)
system.iobus.pkt_size_system.ruby.l1_cntrl3.sequencer.mem-master-port::system.ruby.l1_cntrl0.sequencer.pio-slave-port            4                       # Cumulative packet size per connected master and slave (bytes)
system.iobus.pkt_size_system.ruby.l1_cntrl3.sequencer.mem-master-port::system.ruby.l1_cntrl1.sequencer.pio-slave-port            4                       # Cumulative packet size per connected master and slave (bytes)
system.iobus.pkt_size_system.ruby.l1_cntrl3.sequencer.mem-master-port::system.ruby.l1_cntrl2.sequencer.pio-slave-port            4                       # Cumulative packet size per connected master and slave (bytes)
system.iobus.pkt_size_system.ruby.l1_cntrl3.sequencer.mem-master-port::system.ruby.l1_cntrl3.sequencer.pio-slave-port          504                       # Cumulative packet size per connected master and slave (bytes)
system.iobus.pkt_size_system.ruby.l1_cntrl3.sequencer.mem-master-port::total          532                       # Cumulative packet size per connected master and slave (bytes)
system.iobus.pkt_size::total                     2328                       # Cumulative packet size per connected master and slave (bytes)
system.iobus.reqLayer2.occupancy                82000                       # Layer occupancy (ticks)
system.iobus.reqLayer2.utilization                0.0                       # Layer utilization (%)
system.iobus.reqLayer8.occupancy                33996                       # Layer occupancy (ticks)
system.iobus.reqLayer8.utilization                0.0                       # Layer utilization (%)
system.iobus.reqLayer12.occupancy              119500                       # Layer occupancy (ticks)
system.iobus.reqLayer12.utilization               0.0                       # Layer utilization (%)
system.iobus.reqLayer17.occupancy              314999                       # Layer occupancy (ticks)
system.iobus.reqLayer17.utilization               0.0                       # Layer utilization (%)
system.iobus.reqLayer18.occupancy              310495                       # Layer occupancy (ticks)
system.iobus.reqLayer18.utilization               0.0                       # Layer utilization (%)
system.iobus.reqLayer19.occupancy              326498                       # Layer occupancy (ticks)
system.iobus.reqLayer19.utilization               0.0                       # Layer utilization (%)
system.iobus.reqLayer20.occupancy              313998                       # Layer occupancy (ticks)
system.iobus.reqLayer20.utilization               0.0                       # Layer utilization (%)
system.iobus.respLayer0.occupancy               10998                       # Layer occupancy (ticks)
system.iobus.respLayer0.utilization               0.0                       # Layer utilization (%)
system.iobus.respLayer2.occupancy              223500                       # Layer occupancy (ticks)
system.iobus.respLayer2.utilization               0.0                       # Layer utilization (%)
system.iobus.respLayer4.occupancy              246500                       # Layer occupancy (ticks)
system.iobus.respLayer4.utilization               0.0                       # Layer utilization (%)
system.iobus.respLayer6.occupancy              362000                       # Layer occupancy (ticks)
system.iobus.respLayer6.utilization               0.0                       # Layer utilization (%)
system.iobus.respLayer8.occupancy              201000                       # Layer occupancy (ticks)
system.iobus.respLayer8.utilization               0.0                       # Layer utilization (%)
system.pc.south_bridge.ide.disks.dma_read_full_pages            0                       # Number of full page size DMA reads (not PRD).
system.pc.south_bridge.ide.disks.dma_read_bytes            0                       # Number of bytes transfered via DMA reads (not PRD).
system.pc.south_bridge.ide.disks.dma_read_txs            0                       # Number of DMA read transactions (not PRD).
system.pc.south_bridge.ide.disks.dma_write_full_pages           33                       # Number of full page size DMA writes.
system.pc.south_bridge.ide.disks.dma_write_bytes       135168                       # Number of bytes transfered via DMA writes.
system.pc.south_bridge.ide.disks.dma_write_txs           33                       # Number of DMA write transactions.
system.ruby.clk_domain.clock                      500                       # Clock period in ticks
system.ruby.outstanding_req_hist_seqr::bucket_size            1                      
system.ruby.outstanding_req_hist_seqr::max_bucket            9                      
system.ruby.outstanding_req_hist_seqr::samples    461989424                      
system.ruby.outstanding_req_hist_seqr::mean     1.000000                      
system.ruby.outstanding_req_hist_seqr::gmean     1.000000                      
system.ruby.outstanding_req_hist_seqr::stdev     0.000665                      
system.ruby.outstanding_req_hist_seqr    |           0      0.00%      0.00% |   461989220    100.00%    100.00% |         204      0.00%    100.00% |           0      0.00%    100.00% |           0      0.00%    100.00% |           0      0.00%    100.00% |           0      0.00%    100.00% |           0      0.00%    100.00% |           0      0.00%    100.00% |           0      0.00%    100.00%
system.ruby.outstanding_req_hist_seqr::total    461989424                      
system.ruby.latency_hist_seqr::bucket_size          128                      
system.ruby.latency_hist_seqr::max_bucket         1279                      
system.ruby.latency_hist_seqr::samples      461989424                      
system.ruby.latency_hist_seqr::mean          1.005808                      
system.ruby.latency_hist_seqr::gmean         1.000904                      
system.ruby.latency_hist_seqr::stdev         0.537082                      
system.ruby.latency_hist_seqr            |   461988817    100.00%    100.00% |         536      0.00%    100.00% |           8      0.00%    100.00% |           8      0.00%    100.00% |          43      0.00%    100.00% |          12      0.00%    100.00% |           0      0.00%    100.00% |           0      0.00%    100.00% |           0      0.00%    100.00% |           0      0.00%    100.00%
system.ruby.latency_hist_seqr::total        461989424                      
system.ruby.hit_latency_hist_seqr::bucket_size            2                      
system.ruby.hit_latency_hist_seqr::max_bucket           19                      
system.ruby.hit_latency_hist_seqr::samples    461964407                      
system.ruby.hit_latency_hist_seqr::mean      1.002904                      
system.ruby.hit_latency_hist_seqr::gmean     1.000697                      
system.ruby.hit_latency_hist_seqr::stdev     0.170379                      
system.ruby.hit_latency_hist_seqr        |   461830265     99.97%     99.97% |           0      0.00%     99.97% |           0      0.00%     99.97% |           0      0.00%     99.97% |           0      0.00%     99.97% |      134142      0.03%    100.00% |           0      0.00%    100.00% |           0      0.00%    100.00% |           0      0.00%    100.00% |           0      0.00%    100.00%
system.ruby.hit_latency_hist_seqr::total    461964407                      
system.ruby.miss_latency_hist_seqr::bucket_size          128                      
system.ruby.miss_latency_hist_seqr::max_bucket         1279                      
system.ruby.miss_latency_hist_seqr::samples        25017                      
system.ruby.miss_latency_hist_seqr::mean    54.643482                      
system.ruby.miss_latency_hist_seqr::gmean    45.854319                      
system.ruby.miss_latency_hist_seqr::stdev    43.747067                      
system.ruby.miss_latency_hist_seqr       |       24410     97.57%     97.57% |         536      2.14%     99.72% |           8      0.03%     99.75% |           8      0.03%     99.78% |          43      0.17%     99.95% |          12      0.05%    100.00% |           0      0.00%    100.00% |           0      0.00%    100.00% |           0      0.00%    100.00% |           0      0.00%    100.00%
system.ruby.miss_latency_hist_seqr::total        25017                      
system.ruby.L1Cache.incomplete_times_seqr            9                      
system.ruby.dir_cntrl0.probeFilter.demand_hits            0                       # Number of cache demand hits
[...]
system.ruby.L1Cache_Controller.O.Trigger_L2_to_L1I::total        21879                      
system.ruby.L1Cache_Controller.O.Other_GETX |        1433     27.56%     27.56% |         800     15.39%     42.95% |        1097     21.10%     64.05% |        1869     35.95%    100.00%
system.ruby.L1Cache_Controller.O.Other_GETX::total         5199                      
system.ruby.L1Cache_Controller.O.Other_GETS |        1814     12.32%     12.32% |        8699     59.06%     71.38% |         977      6.63%     78.01% |        3238     21.99%    100.00%
system.ruby.L1Cache_Controller.O.Other_GETS::total        14728                      
system.ruby.L1Cache_Controller.M.Load    |       51069      0.21%      0.21% |    23854232     98.60%     98.81% |       77645      0.32%     99.13% |      211136      0.87%    100.00%
system.ruby.L1Cache_Controller.M.Load::total     24194082                      
system.ruby.L1Cache_Controller.M.Ifetch  |       84298      0.05%      0.05% |   140354579     89.64%     89.69% |      106530      0.07%     89.76% |    16029690     10.24%    100.00%
system.ruby.L1Cache_Controller.M.Ifetch::total    156575097                      
system.ruby.L1Cache_Controller.M.Store   |        2160     18.12%     18.12% |        1549     13.00%     31.12% |        5107     42.85%     73.97% |        3102     26.03%    100.00%
system.ruby.L1Cache_Controller.M.Store::total        11918                      
system.ruby.L1Cache_Controller.M.L2_Replacement |           3      1.56%      1.56% |          12      6.25%      7.81% |          90     46.88%     54.69% |          87     45.31%    100.00%
system.ruby.L1Cache_Controller.M.L2_Replacement::total          192                      
system.ruby.L1Cache_Controller.M.L1_to_L2 |        3952      3.14%      3.14% |       74400     59.09%     62.23% |        4264      3.39%     65.61% |       43297     34.39%    100.00%
system.ruby.L1Cache_Controller.M.L1_to_L2::total       125913                      
system.ruby.L1Cache_Controller.M.Trigger_L2_to_L1D |         745      0.99%      0.99% |       70884     94.23%     95.22% |        1252      1.66%     96.88% |        2346      3.12%    100.00%
system.ruby.L1Cache_Controller.M.Trigger_L2_to_L1D::total        75227                      
system.ruby.L1Cache_Controller.M.Trigger_L2_to_L1I |         778      2.08%      2.08% |         223      0.60%      2.68% |         534      1.43%      4.10% |       35871     95.90%    100.00%
system.ruby.L1Cache_Controller.M.Trigger_L2_to_L1I::total        37406                      
system.ruby.L1Cache_Controller.M.Other_GETX |         253     11.50%     11.50% |         260     11.82%     23.32% |         968     44.00%     67.32% |         719     32.68%    100.00%
system.ruby.L1Cache_Controller.M.Other_GETX::total         2200                      
system.ruby.L1Cache_Controller.M.Other_GETS |        3060     24.97%     24.97% |        3095     25.25%     50.22% |        2031     16.57%     66.79% |        4071     33.21%    100.00%
system.ruby.L1Cache_Controller.M.Other_GETS::total        12257                      
system.ruby.L1Cache_Controller.M.Merged_GETS |           9     31.03%     31.03% |          12     41.38%     72.41% |           3     10.34%     82.76% |           5     17.24%    100.00%
system.ruby.L1Cache_Controller.M.Merged_GETS::total           29                      
system.ruby.L1Cache_Controller.MM.Load   |      246421      0.86%      0.86% |    24389971     85.56%     86.43% |      474962      1.67%     88.09% |     3394665     11.91%    100.00%
system.ruby.L1Cache_Controller.MM.Load::total     28506019                      
system.ruby.L1Cache_Controller.MM.Store  |      278344      1.12%      1.12% |    21251783     85.50%     86.62% |      550224      2.21%     88.84% |     2774300     11.16%    100.00%
system.ruby.L1Cache_Controller.MM.Store::total     24854651                      
system.ruby.L1Cache_Controller.MM.L2_Replacement |           6      0.63%      0.63% |          31      3.24%      3.86% |         556     58.04%     61.90% |         365     38.10%    100.00%
system.ruby.L1Cache_Controller.MM.L2_Replacement::total          958                      
system.ruby.L1Cache_Controller.MM.L1_to_L2 |        9102     12.06%     12.06% |       26408     34.98%     47.03% |       17046     22.58%     69.61% |       22941     30.39%    100.00%
system.ruby.L1Cache_Controller.MM.L1_to_L2::total        75497                      
system.ruby.L1Cache_Controller.MM.Trigger_L2_to_L1D |        3449      7.81%      7.81% |       23118     52.37%     60.19% |        5346     12.11%     72.30% |       12227     27.70%    100.00%
system.ruby.L1Cache_Controller.MM.Trigger_L2_to_L1D::total        44140                      
system.ruby.L1Cache_Controller.MM.Other_GETX |         986     10.79%     10.79% |        3308     36.20%     46.99% |         989     10.82%     57.81% |        3855     42.19%    100.00%
system.ruby.L1Cache_Controller.MM.Other_GETX::total         9138                      
system.ruby.L1Cache_Controller.MM.Other_GETS |        2389     17.06%     17.06% |        2821     20.15%     37.21% |        2567     18.33%     55.54% |        6226     44.46%    100.00%
system.ruby.L1Cache_Controller.MM.Other_GETS::total        14003                      
system.ruby.L1Cache_Controller.MM.Merged_GETS |          24     38.10%     38.10% |          15     23.81%     61.90% |           6      9.52%     71.43% |          18     28.57%    100.00%
system.ruby.L1Cache_Controller.MM.Merged_GETS::total           63                      
system.ruby.L1Cache_Controller.SR.Load   |        1557     13.04%     13.04% |        1712     14.34%     27.39% |        4860     40.71%     68.10% |        3808     31.90%    100.00%
system.ruby.L1Cache_Controller.SR.Load::total        11937                      
system.ruby.L1Cache_Controller.SR.Ifetch |       12122     14.79%     14.79% |        5121      6.25%     21.04% |       24442     29.83%     50.87% |       40264     49.13%    100.00%
system.ruby.L1Cache_Controller.SR.Ifetch::total        81949                      
system.ruby.L1Cache_Controller.SR.Store  |          20      4.17%      4.17% |         174     36.25%     40.42% |          97     20.21%     60.62% |         189     39.38%    100.00%
system.ruby.L1Cache_Controller.SR.Store::total          480                      
system.ruby.L1Cache_Controller.OR.Load   |         774     12.06%     12.06% |        4057     63.20%     75.26% |         339      5.28%     80.54% |        1249     19.46%    100.00%
system.ruby.L1Cache_Controller.OR.Load::total         6419                      
system.ruby.L1Cache_Controller.OR.Ifetch |        1047      4.79%      4.79% |       11669     53.33%     58.12% |        1549      7.08%     65.20% |        7614     34.80%    100.00%
system.ruby.L1Cache_Controller.OR.Ifetch::total        21879                      
system.ruby.L1Cache_Controller.OR.Store  |           5      6.10%      6.10% |           4      4.88%     10.98% |           3      3.66%     14.63% |          70     85.37%    100.00%
system.ruby.L1Cache_Controller.OR.Store::total           82                      
system.ruby.L1Cache_Controller.MR.Load   |         400      0.55%      0.55% |       70695     96.54%     97.09% |         736      1.01%     98.09% |        1397      1.91%    100.00%
system.ruby.L1Cache_Controller.MR.Load::total        73228                      
system.ruby.L1Cache_Controller.MR.Ifetch |         778      2.08%      2.08% |         223      0.60%      2.68% |         534      1.43%      4.10% |       35871     95.90%    100.00%
system.ruby.L1Cache_Controller.MR.Ifetch::total        37406                      
system.ruby.L1Cache_Controller.MR.Store  |         345     17.26%     17.26% |         189      9.45%     26.71% |         516     25.81%     52.53% |         949     47.47%    100.00%
system.ruby.L1Cache_Controller.MR.Store::total         1999                      
system.ruby.L1Cache_Controller.MMR.Load  |        1158      8.74%      8.74% |        2884     21.75%     30.49% |        3090     23.31%     53.80% |        6125     46.20%    100.00%
system.ruby.L1Cache_Controller.MMR.Load::total        13257                      
system.ruby.L1Cache_Controller.MMR.Store |        2291      7.42%      7.42% |       20234     65.52%     72.94% |        2256      7.30%     80.24% |        6102     19.76%    100.00%
system.ruby.L1Cache_Controller.MMR.Store::total        30883                      
system.ruby.L1Cache_Controller.IM.Ack    |       11960     21.58%     21.58% |        5923     10.69%     32.27% |       11937     21.54%     53.82% |       25592     46.18%    100.00%
system.ruby.L1Cache_Controller.IM.Ack::total        55412                      
system.ruby.L1Cache_Controller.IM.Data   |         407     30.01%     30.01% |         111      8.19%     38.20% |         686     50.59%     88.79% |         152     11.21%    100.00%
system.ruby.L1Cache_Controller.IM.Data::total         1356                      
system.ruby.L1Cache_Controller.IM.Exclusive_Data |        5515     22.14%     22.14% |        3170     12.72%     34.86% |        6466     25.95%     60.81% |        9763     39.19%    100.00%
system.ruby.L1Cache_Controller.IM.Exclusive_Data::total        24914                      
system.ruby.L1Cache_Controller.SM.Other_GETX |           1    100.00%    100.00% |           0      0.00%    100.00% |           0      0.00%    100.00% |           0      0.00%    100.00%
system.ruby.L1Cache_Controller.SM.Other_GETX::total            1                      
system.ruby.L1Cache_Controller.SM.Ack    |        1367     31.28%     31.28% |         603     13.80%     45.08% |        1384     31.67%     76.75% |        1016     23.25%    100.00%
system.ruby.L1Cache_Controller.SM.Ack::total         4370                      
system.ruby.L1Cache_Controller.SM.Data   |         892     23.07%     23.07% |         634     16.40%     39.46% |        1426     36.88%     76.34% |         915     23.66%    100.00%
system.ruby.L1Cache_Controller.SM.Data::total         3867                      
system.ruby.L1Cache_Controller.OM.Ack    |         138     12.92%     12.92% |         108     10.11%     23.03% |         126     11.80%     34.83% |         696     65.17%    100.00%
system.ruby.L1Cache_Controller.OM.Ack::total         1068                      
system.ruby.L1Cache_Controller.OM.All_acks_no_sharers |          46     12.92%     12.92% |          36     10.11%     23.03% |          42     11.80%     34.83% |         232     65.17%    100.00%
system.ruby.L1Cache_Controller.OM.All_acks_no_sharers::total          356                      
system.ruby.L1Cache_Controller.ISM.Ack   |         562     12.31%     12.31% |         787     17.24%     29.54% |        2323     50.88%     80.42% |         894     19.58%    100.00%
system.ruby.L1Cache_Controller.ISM.Ack::total         4566                      
system.ruby.L1Cache_Controller.ISM.All_acks_no_sharers |        1299     24.87%     24.87% |         745     14.26%     39.13% |        2112     40.44%     79.57% |        1067     20.43%    100.00%
system.ruby.L1Cache_Controller.ISM.All_acks_no_sharers::total         5223                      
system.ruby.L1Cache_Controller.M_W.Load  |          26     15.76%     15.76% |          26     15.76%     31.52% |          47     28.48%     60.00% |          66     40.00%    100.00%
system.ruby.L1Cache_Controller.M_W.Load::total          165                      
system.ruby.L1Cache_Controller.M_W.Store |          12     22.64%     22.64% |           4      7.55%     30.19% |           4      7.55%     37.74% |          33     62.26%    100.00%
system.ruby.L1Cache_Controller.M_W.Store::total           53                      
system.ruby.L1Cache_Controller.M_W.Ack   |        2645     22.82%     22.82% |        2018     17.41%     40.23% |        3057     26.38%     66.61% |        3870     33.39%    100.00%
system.ruby.L1Cache_Controller.M_W.Ack::total        11590                      
system.ruby.L1Cache_Controller.M_W.All_acks_no_sharers |        6240     18.86%     18.86% |        6077     18.37%     37.23% |        9987     30.19%     67.41% |       10781     32.59%    100.00%
system.ruby.L1Cache_Controller.M_W.All_acks_no_sharers::total        33085                      
system.ruby.L1Cache_Controller.MM_W.Store |         751     24.70%     24.70% |         511     16.81%     41.51% |        1146     37.70%     79.21% |         632     20.79%    100.00%
system.ruby.L1Cache_Controller.MM_W.Store::total         3040                      
system.ruby.L1Cache_Controller.MM_W.Ack  |        2260     23.59%     23.59% |        1705     17.80%     41.39% |        3679     38.41%     79.80% |        1935     20.20%    100.00%
system.ruby.L1Cache_Controller.MM_W.Ack::total         9579                      
system.ruby.L1Cache_Controller.MM_W.All_acks_no_sharers |        5527     22.14%     22.14% |        3174     12.71%     34.85% |        6470     25.91%     60.76% |        9796     39.24%    100.00%
system.ruby.L1Cache_Controller.MM_W.All_acks_no_sharers::total        24967                      
system.ruby.L1Cache_Controller.IS.Other_GETS |           0      0.00%      0.00% |           0      0.00%      0.00% |           1     50.00%     50.00% |           1     50.00%    100.00%
system.ruby.L1Cache_Controller.IS.Other_GETS::total            2                      
system.ruby.L1Cache_Controller.IS.Ack    |       15738     16.82%     16.82% |       17505     18.70%     35.52% |       31239     33.38%     68.90% |       29106     31.10%    100.00%
system.ruby.L1Cache_Controller.IS.Ack::total        93588                      
system.ruby.L1Cache_Controller.IS.Shared_Ack |        2914     37.49%     37.49% |         506      6.51%     44.00% |        3472     44.67%     88.67% |         881     11.33%    100.00%
system.ruby.L1Cache_Controller.IS.Shared_Ack::total         7773                      
system.ruby.L1Cache_Controller.IS.Data   |          76     32.76%     32.76% |          41     17.67%     50.43% |          96     41.38%     91.81% |          19      8.19%    100.00%
system.ruby.L1Cache_Controller.IS.Data::total          232                      
system.ruby.L1Cache_Controller.IS.Shared_Data |        7358     27.17%     27.17% |        4285     15.82%     43.00% |        9929     36.67%     79.66% |        5507     20.34%    100.00%
system.ruby.L1Cache_Controller.IS.Shared_Data::total        27079                      
system.ruby.L1Cache_Controller.IS.Exclusive_Data |        6252     18.87%     18.87% |        6081     18.35%     37.22% |        9991     30.15%     67.37% |       10814     32.63%    100.00%
system.ruby.L1Cache_Controller.IS.Exclusive_Data::total        33138                      
system.ruby.L1Cache_Controller.SS.Load   |          49     13.92%     13.92% |          73     20.74%     34.66% |         189     53.69%     88.35% |          41     11.65%    100.00%
system.ruby.L1Cache_Controller.SS.Load::total          352                      
system.ruby.L1Cache_Controller.SS.Ifetch |        2765     34.39%     34.39% |         796      9.90%     44.29% |        3057     38.02%     82.30% |        1423     17.70%    100.00%
system.ruby.L1Cache_Controller.SS.Ifetch::total         8041                      
system.ruby.L1Cache_Controller.SS.Store  |           0      0.00%      0.00% |           3     42.86%     42.86% |           2     28.57%     71.43% |           2     28.57%    100.00%
system.ruby.L1Cache_Controller.SS.Store::total            7                      
system.ruby.L1Cache_Controller.SS.Ack    |        2634     18.02%     18.02% |        3694     25.27%     43.29% |        4140     28.32%     71.61% |        4151     28.39%    100.00%
system.ruby.L1Cache_Controller.SS.Ack::total        14619                      
system.ruby.L1Cache_Controller.SS.Shared_Ack |        5724     45.94%     45.94% |         485      3.89%     49.83% |        4831     38.77%     88.60% |        1420     11.40%    100.00%
system.ruby.L1Cache_Controller.SS.Shared_Ack::total        12460                      
system.ruby.L1Cache_Controller.SS.All_acks |        7433     27.23%     27.23% |        4324     15.84%     43.07% |       10017     36.69%     79.76% |        5525     20.24%    100.00%
system.ruby.L1Cache_Controller.SS.All_acks::total        27299                      
system.ruby.L1Cache_Controller.SS.All_acks_no_sharers |           1      8.33%      8.33% |           2     16.67%     25.00% |           8     66.67%     91.67% |           1      8.33%    100.00%
system.ruby.L1Cache_Controller.SS.All_acks_no_sharers::total           12                      
system.ruby.L1Cache_Controller.OI.Load   |           0      0.00%      0.00% |           2     40.00%     40.00% |           0      0.00%     40.00% |           3     60.00%    100.00%
system.ruby.L1Cache_Controller.OI.Load::total            5                      
system.ruby.L1Cache_Controller.OI.Ifetch |           0      0.00%      0.00% |           0      0.00%      0.00% |           2    100.00%    100.00% |           0      0.00%    100.00%
system.ruby.L1Cache_Controller.OI.Ifetch::total            2                      
system.ruby.L1Cache_Controller.OI.Writeback_Ack |           8      2.72%      2.72% |          74     25.17%     27.89% |         101     34.35%     62.24% |         111     37.76%    100.00%
system.ruby.L1Cache_Controller.OI.Writeback_Ack::total          294                      
system.ruby.L1Cache_Controller.MI.Load   |           0      0.00%      0.00% |           0      0.00%      0.00% |           1      7.69%      7.69% |          12     92.31%    100.00%
system.ruby.L1Cache_Controller.MI.Load::total           13                      
system.ruby.L1Cache_Controller.MI.Ifetch |           0      0.00%      0.00% |           0      0.00%      0.00% |           1    100.00%    100.00% |           0      0.00%    100.00%
system.ruby.L1Cache_Controller.MI.Ifetch::total            1                      
system.ruby.L1Cache_Controller.MI.Store  |           0      0.00%      0.00% |           2     18.18%     18.18% |           8     72.73%     90.91% |           1      9.09%    100.00%
system.ruby.L1Cache_Controller.MI.Store::total           11                      
system.ruby.L1Cache_Controller.MI.Writeback_Ack |           9      0.78%      0.78% |          43      3.74%      4.52% |         646     56.17%     60.70% |         452     39.30%    100.00%
system.ruby.L1Cache_Controller.MI.Writeback_Ack::total         1150                      
system.ruby.L1Cache_Controller.ST.Complete_L2_to_L1 |       13699     14.52%     14.52% |        7007      7.43%     21.94% |       29399     31.15%     53.10% |       44261     46.90%    100.00%
system.ruby.L1Cache_Controller.ST.Complete_L2_to_L1::total        94366                      
system.ruby.L1Cache_Controller.OT.Complete_L2_to_L1 |        1826      6.43%      6.43% |       15730     55.43%     61.86% |        1891      6.66%     68.52% |        8933     31.48%    100.00%
system.ruby.L1Cache_Controller.OT.Complete_L2_to_L1::total        28380                      
system.ruby.L1Cache_Controller.MT.Complete_L2_to_L1 |        1523      1.35%      1.35% |       71107     63.13%     64.48% |        1786      1.59%     66.07% |       38217     33.93%    100.00%
system.ruby.L1Cache_Controller.MT.Complete_L2_to_L1::total       112633                      
system.ruby.L1Cache_Controller.MMT.Complete_L2_to_L1 |        3449      7.81%      7.81% |       23118     52.37%     60.19% |        5346     12.11%     72.30% |       12227     27.70%    100.00%
system.ruby.L1Cache_Controller.MMT.Complete_L2_to_L1::total        44140                      

---------- End Simulation Statistics   ----------
