
---------- Begin Simulation Statistics ----------
sim_seconds                                  2.406200                       # Number of seconds simulated
sim_ticks                                2406200466000                       # Number of ticks simulated
final_tick                               54968517590501                       # Number of ticks from beginning of simulation (restored from checkpoints and never reset)
sim_freq                                 1000000000000                       # Frequency of simulated ticks
host_inst_rate                                 148747                       # Simulator instruction rate (inst/s)
host_op_rate                                   269633                       # Simulator op (including micro ops) rate (op/s)
host_tick_rate                              272592540                       # Simulator tick rate (ticks/s)
host_mem_usage                                1854280                       # Number of bytes of host memory used
host_seconds                                  8827.10                       # Real time elapsed on the host
sim_insts                                  1313002833                       # Number of instructions simulated
sim_ops                                    2380073443                       # Number of ops (including micro ops) simulated
system.voltage_domain.voltage                       1                       # Voltage in Volts
system.clk_domain.clock                          1000                       # Clock period in ticks
system.mem_ctrls.bytes_read::ruby.dir_cntrl0     83534656                       # Number of bytes read from this memory
system.mem_ctrls.bytes_read::total           83534656                       # Number of bytes read from this memory
system.mem_ctrls.bytes_written::ruby.dir_cntrl0     47388608                       # Number of bytes written to this memory
system.mem_ctrls.bytes_written::total        47388608                       # Number of bytes written to this memory
system.mem_ctrls.num_reads::ruby.dir_cntrl0      1305229                       # Number of read requests responded to by this memory
system.mem_ctrls.num_reads::total             1305229                       # Number of read requests responded to by this memory
system.mem_ctrls.num_writes::ruby.dir_cntrl0       740447                       # Number of write requests responded to by this memory
system.mem_ctrls.num_writes::total             740447                       # Number of write requests responded to by this memory
system.mem_ctrls.bw_read::ruby.dir_cntrl0     34716416                       # Total read bandwidth from this memory (bytes/s)
system.mem_ctrls.bw_read::total              34716416                       # Total read bandwidth from this memory (bytes/s)
system.mem_ctrls.bw_write::ruby.dir_cntrl0     19694372                       # Write bandwidth from this memory (bytes/s)
system.mem_ctrls.bw_write::total             19694372                       # Write bandwidth from this memory (bytes/s)
system.mem_ctrls.bw_total::ruby.dir_cntrl0     54410788                       # Total bandwidth to/from this memory (bytes/s)
system.mem_ctrls.bw_total::total             54410788                       # Total bandwidth to/from this memory (bytes/s)
system.mem_ctrls.readReqs                     1305229                       # Number of read requests accepted
system.mem_ctrls.writeReqs                     740447                       # Number of write requests accepted
system.mem_ctrls.readBursts                   1305229                       # Number of DRAM read bursts, including those serviced by the write queue
system.mem_ctrls.writeBursts                   740447                       # Number of DRAM write bursts, including those merged in the write queue
system.mem_ctrls.bytesReadDRAM               83499328                       # Total number of bytes read from DRAM
system.mem_ctrls.bytesReadWrQ                   35328                       # Total number of bytes read from write queue
system.mem_ctrls.bytesWritten                47387520                       # Total number of bytes written to DRAM
system.mem_ctrls.bytesReadSys                83534656                       # Total read bytes from the system interface side
system.mem_ctrls.bytesWrittenSys             47388608                       # Total written bytes from the system interface side
system.mem_ctrls.servicedByWrQ                    552                       # Number of DRAM read bursts serviced by the write queue
system.mem_ctrls.mergedWrBursts                    24                       # Number of DRAM write bursts merged with an existing one
system.mem_ctrls.neitherReadNorWriteReqs            0                       # Number of requests that are neither read nor write
system.mem_ctrls.perBankRdBursts::0             83209                       # Per bank write bursts
system.mem_ctrls.perBankRdBursts::1             79919                       # Per bank write bursts
system.mem_ctrls.perBankRdBursts::2             80980                       # Per bank write bursts
system.mem_ctrls.perBankRdBursts::3             80474                       # Per bank write bursts
system.mem_ctrls.perBankRdBursts::4             82346                       # Per bank write bursts
system.mem_ctrls.perBankRdBursts::5             84718                       # Per bank write bursts
system.mem_ctrls.perBankRdBursts::6             84911                       # Per bank write bursts
system.mem_ctrls.perBankRdBursts::7             81371                       # Per bank write bursts
system.mem_ctrls.perBankRdBursts::8             82126                       # Per bank write bursts
system.mem_ctrls.perBankRdBursts::9             82225                       # Per bank write bursts
system.mem_ctrls.perBankRdBursts::10            78539                       # Per bank write bursts
system.mem_ctrls.perBankRdBursts::11            79389                       # Per bank write bursts
system.mem_ctrls.perBankRdBursts::12            82687                       # Per bank write bursts
system.mem_ctrls.perBankRdBursts::13            79779                       # Per bank write bursts
system.mem_ctrls.perBankRdBursts::14            78953                       # Per bank write bursts
system.mem_ctrls.perBankRdBursts::15            83051                       # Per bank write bursts
system.mem_ctrls.perBankWrBursts::0             46321                       # Per bank write bursts
system.mem_ctrls.perBankWrBursts::1             46576                       # Per bank write bursts
system.mem_ctrls.perBankWrBursts::2             45283                       # Per bank write bursts
system.mem_ctrls.perBankWrBursts::3             45663                       # Per bank write bursts
system.mem_ctrls.perBankWrBursts::4             46591                       # Per bank write bursts
system.mem_ctrls.perBankWrBursts::5             47689                       # Per bank write bursts
system.mem_ctrls.perBankWrBursts::6             48510                       # Per bank write bursts
system.mem_ctrls.perBankWrBursts::7             46338                       # Per bank write bursts
system.mem_ctrls.perBankWrBursts::8             47483                       # Per bank write bursts
system.mem_ctrls.perBankWrBursts::9             46720                       # Per bank write bursts
system.mem_ctrls.perBankWrBursts::10            45036                       # Per bank write bursts
system.mem_ctrls.perBankWrBursts::11            45610                       # Per bank write bursts
system.mem_ctrls.perBankWrBursts::12            46341                       # Per bank write bursts
system.mem_ctrls.perBankWrBursts::13            45270                       # Per bank write bursts
system.mem_ctrls.perBankWrBursts::14            45295                       # Per bank write bursts
system.mem_ctrls.perBankWrBursts::15            45704                       # Per bank write bursts
system.mem_ctrls.numRdRetry                         0                       # Number of times read queue was full causing retry
system.mem_ctrls.numWrRetry                         0                       # Number of times write queue was full causing retry
system.mem_ctrls.totGap                  2406200377500                       # Total gap between requests
system.mem_ctrls.readPktSize::0                     0                       # Read request sizes (log2)
system.mem_ctrls.readPktSize::1                     0                       # Read request sizes (log2)
system.mem_ctrls.readPktSize::2                     0                       # Read request sizes (log2)
system.mem_ctrls.readPktSize::3                     0                       # Read request sizes (log2)
system.mem_ctrls.readPktSize::4                     0                       # Read request sizes (log2)
system.mem_ctrls.readPktSize::5                     0                       # Read request sizes (log2)
system.mem_ctrls.readPktSize::6               1305229                       # Read request sizes (log2)
system.mem_ctrls.writePktSize::0                    0                       # Write request sizes (log2)
system.mem_ctrls.writePktSize::1                    0                       # Write request sizes (log2)
system.mem_ctrls.writePktSize::2                    0                       # Write request sizes (log2)
system.mem_ctrls.writePktSize::3                    0                       # Write request sizes (log2)
system.mem_ctrls.writePktSize::4                    0                       # Write request sizes (log2)
system.mem_ctrls.writePktSize::5                    0                       # Write request sizes (log2)
system.mem_ctrls.writePktSize::6               740447                       # Write request sizes (log2)
system.mem_ctrls.rdQLenPdf::0                 1301330                       # What read queue length does an incoming req see
system.mem_ctrls.rdQLenPdf::1                    3341                       # What read queue length does an incoming req see
system.mem_ctrls.rdQLenPdf::2                       6                       # What read queue length does an incoming req see
system.mem_ctrls.rdQLenPdf::3                       0                       # What read queue length does an incoming req see
system.mem_ctrls.rdQLenPdf::4                       0                       # What read queue length does an incoming req see
system.mem_ctrls.rdQLenPdf::5                       0                       # What read queue length does an incoming req see
system.mem_ctrls.rdQLenPdf::6                       0                       # What read queue length does an incoming req see
system.mem_ctrls.rdQLenPdf::7                       0                       # What read queue length does an incoming req see
system.mem_ctrls.rdQLenPdf::8                       0                       # What read queue length does an incoming req see
system.mem_ctrls.rdQLenPdf::9                       0                       # What read queue length does an incoming req see
system.mem_ctrls.rdQLenPdf::10                      0                       # What read queue length does an incoming req see
system.mem_ctrls.rdQLenPdf::11                      0                       # What read queue length does an incoming req see
system.mem_ctrls.rdQLenPdf::12                      0                       # What read queue length does an incoming req see
system.mem_ctrls.rdQLenPdf::13                      0                       # What read queue length does an incoming req see
system.mem_ctrls.rdQLenPdf::14                      0                       # What read queue length does an incoming req see
system.mem_ctrls.rdQLenPdf::15                      0                       # What read queue length does an incoming req see
system.mem_ctrls.rdQLenPdf::16                      0                       # What read queue length does an incoming req see
system.mem_ctrls.rdQLenPdf::17                      0                       # What read queue length does an incoming req see
system.mem_ctrls.rdQLenPdf::18                      0                       # What read queue length does an incoming req see
system.mem_ctrls.rdQLenPdf::19                      0                       # What read queue length does an incoming req see
system.mem_ctrls.rdQLenPdf::20                      0                       # What read queue length does an incoming req see
system.mem_ctrls.rdQLenPdf::21                      0                       # What read queue length does an incoming req see
system.mem_ctrls.rdQLenPdf::22                      0                       # What read queue length does an incoming req see
system.mem_ctrls.rdQLenPdf::23                      0                       # What read queue length does an incoming req see
system.mem_ctrls.rdQLenPdf::24                      0                       # What read queue length does an incoming req see
system.mem_ctrls.rdQLenPdf::25                      0                       # What read queue length does an incoming req see
system.mem_ctrls.rdQLenPdf::26                      0                       # What read queue length does an incoming req see
system.mem_ctrls.rdQLenPdf::27                      0                       # What read queue length does an incoming req see
system.mem_ctrls.rdQLenPdf::28                      0                       # What read queue length does an incoming req see
system.mem_ctrls.rdQLenPdf::29                      0                       # What read queue length does an incoming req see
system.mem_ctrls.rdQLenPdf::30                      0                       # What read queue length does an incoming req see
system.mem_ctrls.rdQLenPdf::31                      0                       # What read queue length does an incoming req see
system.mem_ctrls.wrQLenPdf::0                       0                       # What write queue length does an incoming req see
system.mem_ctrls.wrQLenPdf::1                       0                       # What write queue length does an incoming req see
system.mem_ctrls.wrQLenPdf::2                       0                       # What write queue length does an incoming req see
system.mem_ctrls.wrQLenPdf::3                       0                       # What write queue length does an incoming req see
system.mem_ctrls.wrQLenPdf::4                       0                       # What write queue length does an incoming req see
system.mem_ctrls.wrQLenPdf::5                       0                       # What write queue length does an incoming req see
system.mem_ctrls.wrQLenPdf::6                       0                       # What write queue length does an incoming req see
system.mem_ctrls.wrQLenPdf::7                       0                       # What write queue length does an incoming req see
system.mem_ctrls.wrQLenPdf::8                       0                       # What write queue length does an incoming req see
system.mem_ctrls.wrQLenPdf::9                       0                       # What write queue length does an incoming req see
system.mem_ctrls.wrQLenPdf::10                      0                       # What write queue length does an incoming req see
system.mem_ctrls.wrQLenPdf::11                      0                       # What write queue length does an incoming req see
system.mem_ctrls.wrQLenPdf::12                      0                       # What write queue length does an incoming req see
system.mem_ctrls.wrQLenPdf::13                      0                       # What write queue length does an incoming req see
system.mem_ctrls.wrQLenPdf::14                      0                       # What write queue length does an incoming req see
system.mem_ctrls.wrQLenPdf::15                    814                       # What write queue length does an incoming req see
system.mem_ctrls.wrQLenPdf::16                    883                       # What write queue length does an incoming req see
system.mem_ctrls.wrQLenPdf::17                  45734                       # What write queue length does an incoming req see
system.mem_ctrls.wrQLenPdf::18                  46209                       # What write queue length does an incoming req see
system.mem_ctrls.wrQLenPdf::19                  46207                       # What write queue length does an incoming req see
system.mem_ctrls.wrQLenPdf::20                  46214                       # What write queue length does an incoming req see
system.mem_ctrls.wrQLenPdf::21                  46218                       # What write queue length does an incoming req see
system.mem_ctrls.wrQLenPdf::22                  46217                       # What write queue length does an incoming req see
system.mem_ctrls.wrQLenPdf::23                  46212                       # What write queue length does an incoming req see
system.mem_ctrls.wrQLenPdf::24                  46220                       # What write queue length does an incoming req see
system.mem_ctrls.wrQLenPdf::25                  46196                       # What write queue length does an incoming req see
system.mem_ctrls.wrQLenPdf::26                  46201                       # What write queue length does an incoming req see
system.mem_ctrls.wrQLenPdf::27                  46197                       # What write queue length does an incoming req see
system.mem_ctrls.wrQLenPdf::28                  46185                       # What write queue length does an incoming req see
system.mem_ctrls.wrQLenPdf::29                  46177                       # What write queue length does an incoming req see
system.mem_ctrls.wrQLenPdf::30                  46178                       # What write queue length does an incoming req see
system.mem_ctrls.wrQLenPdf::31                  46169                       # What write queue length does an incoming req see
system.mem_ctrls.wrQLenPdf::32                  46171                       # What write queue length does an incoming req see
system.mem_ctrls.wrQLenPdf::33                      6                       # What write queue length does an incoming req see
system.mem_ctrls.wrQLenPdf::34                      2                       # What write queue length does an incoming req see
system.mem_ctrls.wrQLenPdf::35                      3                       # What write queue length does an incoming req see
system.mem_ctrls.wrQLenPdf::36                      1                       # What write queue length does an incoming req see
system.mem_ctrls.wrQLenPdf::37                      1                       # What write queue length does an incoming req see
system.mem_ctrls.wrQLenPdf::38                      3                       # What write queue length does an incoming req see
system.mem_ctrls.wrQLenPdf::39                      1                       # What write queue length does an incoming req see
system.mem_ctrls.wrQLenPdf::40                      2                       # What write queue length does an incoming req see
system.mem_ctrls.wrQLenPdf::41                      1                       # What write queue length does an incoming req see
system.mem_ctrls.wrQLenPdf::42                      1                       # What write queue length does an incoming req see
system.mem_ctrls.wrQLenPdf::43                      0                       # What write queue length does an incoming req see
system.mem_ctrls.wrQLenPdf::44                      0                       # What write queue length does an incoming req see
system.mem_ctrls.wrQLenPdf::45                      0                       # What write queue length does an incoming req see
system.mem_ctrls.wrQLenPdf::46                      0                       # What write queue length does an incoming req see
system.mem_ctrls.wrQLenPdf::47                      0                       # What write queue length does an incoming req see
system.mem_ctrls.wrQLenPdf::48                      0                       # What write queue length does an incoming req see
system.mem_ctrls.wrQLenPdf::49                      0                       # What write queue length does an incoming req see
system.mem_ctrls.wrQLenPdf::50                      0                       # What write queue length does an incoming req see
system.mem_ctrls.wrQLenPdf::51                      0                       # What write queue length does an incoming req see
system.mem_ctrls.wrQLenPdf::52                      0                       # What write queue length does an incoming req see
system.mem_ctrls.wrQLenPdf::53                      0                       # What write queue length does an incoming req see
system.mem_ctrls.wrQLenPdf::54                      0                       # What write queue length does an incoming req see
system.mem_ctrls.wrQLenPdf::55                      0                       # What write queue length does an incoming req see
system.mem_ctrls.wrQLenPdf::56                      0                       # What write queue length does an incoming req see
system.mem_ctrls.wrQLenPdf::57                      0                       # What write queue length does an incoming req see
system.mem_ctrls.wrQLenPdf::58                      0                       # What write queue length does an incoming req see
system.mem_ctrls.wrQLenPdf::59                      0                       # What write queue length does an incoming req see
system.mem_ctrls.wrQLenPdf::60                      0                       # What write queue length does an incoming req see
system.mem_ctrls.wrQLenPdf::61                      0                       # What write queue length does an incoming req see
system.mem_ctrls.wrQLenPdf::62                      0                       # What write queue length does an incoming req see
system.mem_ctrls.wrQLenPdf::63                      0                       # What write queue length does an incoming req see
system.mem_ctrls.bytesPerActivate::samples       760689                       # Bytes accessed per row activation
system.mem_ctrls.bytesPerActivate::mean    172.063632                       # Bytes accessed per row activation
system.mem_ctrls.bytesPerActivate::gmean   121.283108                       # Bytes accessed per row activation
system.mem_ctrls.bytesPerActivate::stdev   191.849999                       # Bytes accessed per row activation
system.mem_ctrls.bytesPerActivate::0-127       370575     48.72%     48.72% # Bytes accessed per row activation
system.mem_ctrls.bytesPerActivate::128-255       223267     29.35%     78.07% # Bytes accessed per row activation
system.mem_ctrls.bytesPerActivate::256-383       105442     13.86%     91.93% # Bytes accessed per row activation
system.mem_ctrls.bytesPerActivate::384-511        16515      2.17%     94.10% # Bytes accessed per row activation
system.mem_ctrls.bytesPerActivate::512-639         9667      1.27%     95.37% # Bytes accessed per row activation
system.mem_ctrls.bytesPerActivate::640-767         6638      0.87%     96.24% # Bytes accessed per row activation
system.mem_ctrls.bytesPerActivate::768-895         5734      0.75%     97.00% # Bytes accessed per row activation
system.mem_ctrls.bytesPerActivate::896-1023         4554      0.60%     97.59% # Bytes accessed per row activation
system.mem_ctrls.bytesPerActivate::1024-1151        18297      2.41%    100.00% # Bytes accessed per row activation
system.mem_ctrls.bytesPerActivate::total       760689                       # Bytes accessed per row activation
system.mem_ctrls.rdPerTurnAround::samples        46165                       # Reads before turning the bus around for writes
system.mem_ctrls.rdPerTurnAround::mean      28.261388                       # Reads before turning the bus around for writes
system.mem_ctrls.rdPerTurnAround::stdev     43.443376                       # Reads before turning the bus around for writes
system.mem_ctrls.rdPerTurnAround::0-255         46064     99.78%     99.78% # Reads before turning the bus around for writes
system.mem_ctrls.rdPerTurnAround::256-511           92      0.20%     99.98% # Reads before turning the bus around for writes
system.mem_ctrls.rdPerTurnAround::512-767            1      0.00%     99.98% # Reads before turning the bus around for writes
system.mem_ctrls.rdPerTurnAround::1280-1535            1      0.00%     99.98% # Reads before turning the bus around for writes
system.mem_ctrls.rdPerTurnAround::1536-1791            1      0.00%     99.99% # Reads before turning the bus around for writes
system.mem_ctrls.rdPerTurnAround::2048-2303            2      0.00%     99.99% # Reads before turning the bus around for writes
system.mem_ctrls.rdPerTurnAround::2304-2559            1      0.00%     99.99% # Reads before turning the bus around for writes
system.mem_ctrls.rdPerTurnAround::2560-2815            1      0.00%    100.00% # Reads before turning the bus around for writes
system.mem_ctrls.rdPerTurnAround::4096-4351            2      0.00%    100.00% # Reads before turning the bus around for writes
system.mem_ctrls.rdPerTurnAround::total         46165                       # Reads before turning the bus around for writes
system.mem_ctrls.wrPerTurnAround::samples        46165                       # Writes before turning the bus around for reads
system.mem_ctrls.wrPerTurnAround::mean      16.038774                       # Writes before turning the bus around for reads
system.mem_ctrls.wrPerTurnAround::gmean     16.036230                       # Writes before turning the bus around for reads
system.mem_ctrls.wrPerTurnAround::stdev      0.311959                       # Writes before turning the bus around for reads
system.mem_ctrls.wrPerTurnAround::16            45281     98.09%     98.09% # Writes before turning the bus around for reads
system.mem_ctrls.wrPerTurnAround::17               48      0.10%     98.19% # Writes before turning the bus around for reads
system.mem_ctrls.wrPerTurnAround::18              824      1.78%     99.97% # Writes before turning the bus around for reads
system.mem_ctrls.wrPerTurnAround::19                4      0.01%     99.98% # Writes before turning the bus around for reads
system.mem_ctrls.wrPerTurnAround::21                1      0.00%     99.98% # Writes before turning the bus around for reads
system.mem_ctrls.wrPerTurnAround::22                1      0.00%     99.99% # Writes before turning the bus around for reads
system.mem_ctrls.wrPerTurnAround::24                3      0.01%     99.99% # Writes before turning the bus around for reads
system.mem_ctrls.wrPerTurnAround::26                2      0.00%    100.00% # Writes before turning the bus around for reads
system.mem_ctrls.wrPerTurnAround::43                1      0.00%    100.00% # Writes before turning the bus around for reads
system.mem_ctrls.wrPerTurnAround::total         46165                       # Writes before turning the bus around for reads
system.mem_ctrls.totQLat                  17507318680                       # Total ticks spent queuing
system.mem_ctrls.totMemAccLat             41970012430                       # Total ticks spent from burst creation until serviced by the DRAM
system.mem_ctrls.totBusLat                 6523385000                       # Total ticks spent in databus transfers
system.mem_ctrls.avgQLat                     13418.89                       # Average queueing delay per DRAM burst
system.mem_ctrls.avgBusLat                    5000.00                       # Average bus latency per DRAM burst
system.mem_ctrls.avgMemAccLat                32168.89                       # Average memory access latency per DRAM burst
system.mem_ctrls.avgRdBW                        34.70                       # Average DRAM read bandwidth in MiByte/s
system.mem_ctrls.avgWrBW                        19.69                       # Average achieved write bandwidth in MiByte/s
system.mem_ctrls.avgRdBWSys                     34.72                       # Average system read bandwidth in MiByte/s
system.mem_ctrls.avgWrBWSys                     19.69                       # Average system write bandwidth in MiByte/s
system.mem_ctrls.peakBW                      12800.00                       # Theoretical peak bandwidth in MiByte/s
system.mem_ctrls.busUtil                         0.42                       # Data bus utilization in percentage
system.mem_ctrls.busUtilRead                     0.27                       # Data bus utilization in percentage for reads
system.mem_ctrls.busUtilWrite                    0.15                       # Data bus utilization in percentage for writes
system.mem_ctrls.avgRdQLen                       1.00                       # Average read queue length when enqueuing
system.mem_ctrls.avgWrQLen                      25.49                       # Average write queue length when enqueuing
system.mem_ctrls.readRowHits                   967464                       # Number of row buffer hits during reads
system.mem_ctrls.writeRowHits                  316954                       # Number of row buffer hits during writes
system.mem_ctrls.readRowHitRate                 74.15                       # Row buffer hit rate for reads
system.mem_ctrls.writeRowHitRate                42.81                       # Row buffer hit rate for writes
system.mem_ctrls.avgGap                    1176237.28                       # Average gap between requests
system.mem_ctrls.pageHitRate                    62.80                       # Row buffer hit rate, read and write combined
system.mem_ctrls_0.actEnergy               2964548160                       # Energy for activate commands per rank (pJ)
system.mem_ctrls_0.preEnergy               1617561000                       # Energy for precharge commands per rank (pJ)
system.mem_ctrls_0.readEnergy              5294390400                       # Energy for read commands per rank (pJ)
system.mem_ctrls_0.writeEnergy             2442026880                       # Energy for write commands per rank (pJ)
system.mem_ctrls_0.refreshEnergy         157942970640                       # Energy for refresh commands per rank (pJ)
system.mem_ctrls_0.actBackEnergy         320306918625                       # Energy for active background per rank (pJ)
system.mem_ctrls_0.preBackEnergy         1169929900500                       # Energy for precharge background per rank (pJ)
system.mem_ctrls_0.totalEnergy           1660498316205                       # Total energy per rank (pJ)
system.mem_ctrls_0.averagePower            686.676121                       # Core power per rank (mW)
system.mem_ctrls_0.memoryStateTime::IDLE 1939456070251                       # Time in different power states
system.mem_ctrls_0.memoryStateTime::REF   80348320000                       # Time in different power states
system.mem_ctrls_0.memoryStateTime::PRE_PDN            0                       # Time in different power states
system.mem_ctrls_0.memoryStateTime::ACT  386396019749                       # Time in different power states
system.mem_ctrls_0.memoryStateTime::ACT_PDN            0                       # Time in different power states
system.mem_ctrls_1.actEnergy               2868611760                       # Energy for activate commands per rank (pJ)
system.mem_ctrls_1.preEnergy               1565214750                       # Energy for precharge commands per rank (pJ)
system.mem_ctrls_1.readEnergy              5187811200                       # Energy for read commands per rank (pJ)
system.mem_ctrls_1.writeEnergy             2397301920                       # Energy for write commands per rank (pJ)
system.mem_ctrls_1.refreshEnergy         157942970640                       # Energy for refresh commands per rank (pJ)
system.mem_ctrls_1.actBackEnergy         316625662260                       # Energy for active background per rank (pJ)
system.mem_ctrls_1.preBackEnergy         1173159072750                       # Energy for precharge background per rank (pJ)
system.mem_ctrls_1.totalEnergy           1659746645280                       # Total energy per rank (pJ)
system.mem_ctrls_1.averagePower            686.365278                       # Core power per rank (mW)
system.mem_ctrls_1.memoryStateTime::IDLE 1944175480502                       # Time in different power states
system.mem_ctrls_1.memoryStateTime::REF   80348320000                       # Time in different power states
system.mem_ctrls_1.memoryStateTime::PRE_PDN            0                       # Time in different power states
system.mem_ctrls_1.memoryStateTime::ACT  381676623248                       # Time in different power states
system.mem_ctrls_1.memoryStateTime::ACT_PDN            0                       # Time in different power states
system.cpu_voltage_domain.voltage                   1                       # Voltage in Volts
system.cpu_clk_domain.clock                       500                       # Clock period in ticks
system.cpu0.apic_clk_domain.clock                8000                       # Clock period in ticks
system.cpu0.numCycles                      4814569646                       # number of cpu cycles simulated
system.cpu0.numWorkItemsStarted                     0                       # number of work items this cpu started
system.cpu0.numWorkItemsCompleted                   0                       # number of work items this cpu completed
system.cpu0.kern.inst.arm                           0                       # number of arm instructions executed
system.cpu0.kern.inst.quiesce                       0                       # number of quiesce instructions executed
system.cpu0.committedInsts                    3909207                       # Number of instructions committed
system.cpu0.committedOps                      8100670                       # Number of ops (including micro ops) committed
system.cpu0.num_int_alu_accesses              7878462                       # Number of integer alu accesses
system.cpu0.num_fp_alu_accesses                   372                       # Number of float alu accesses
system.cpu0.num_func_calls                     189704                       # number of times a function call or return occured
system.cpu0.num_conditional_control_insts       624744                       # number of instructions that are conditional controls
system.cpu0.num_int_insts                     7878462                       # number of integer instructions
system.cpu0.num_fp_insts                          372                       # number of float instructions
system.cpu0.num_int_register_reads           15375775                       # number of times the integer registers were read
system.cpu0.num_int_register_writes           6492236                       # number of times the integer registers were written
system.cpu0.num_fp_register_reads                 596                       # number of times the floating registers were read
system.cpu0.num_fp_register_writes                261                       # number of times the floating registers were written
system.cpu0.num_cc_register_reads             4857610                       # number of times the CC registers were read
system.cpu0.num_cc_register_writes            2984932                       # number of times the CC registers were written
system.cpu0.num_mem_refs                      1656098                       # number of memory refs
system.cpu0.num_load_insts                    1024562                       # Number of load instructions
system.cpu0.num_store_insts                    631536                       # Number of store instructions
system.cpu0.num_idle_cycles              4793737169.065270                       # Number of idle cycles
system.cpu0.num_busy_cycles              20832476.934729                       # Number of busy cycles
system.cpu0.not_idle_fraction                0.004327                       # Percentage of non-idle cycles
system.cpu0.idle_fraction                    0.995673                       # Percentage of idle cycles
system.cpu0.Branches                           879390                       # Number of branches fetched
system.cpu0.op_class::No_OpClass                81569      1.01%      1.01% # Class of executed instruction
system.cpu0.op_class::IntAlu                  6328041     78.12%     79.12% # Class of executed instruction
system.cpu0.op_class::IntMult                    9003      0.11%     79.23% # Class of executed instruction
system.cpu0.op_class::IntDiv                    25801      0.32%     79.55% # Class of executed instruction
system.cpu0.op_class::FloatAdd                    244      0.00%     79.56% # Class of executed instruction
system.cpu0.op_class::FloatCmp                      0      0.00%     79.56% # Class of executed instruction
system.cpu0.op_class::FloatCvt                      0      0.00%     79.56% # Class of executed instruction
system.cpu0.op_class::FloatMult                     0      0.00%     79.56% # Class of executed instruction
system.cpu0.op_class::FloatDiv                      0      0.00%     79.56% # Class of executed instruction
system.cpu0.op_class::FloatSqrt                     0      0.00%     79.56% # Class of executed instruction
system.cpu0.op_class::SimdAdd                       0      0.00%     79.56% # Class of executed instruction
system.cpu0.op_class::SimdAddAcc                    0      0.00%     79.56% # Class of executed instruction
system.cpu0.op_class::SimdAlu                       0      0.00%     79.56% # Class of executed instruction
system.cpu0.op_class::SimdCmp                       0      0.00%     79.56% # Class of executed instruction
system.cpu0.op_class::SimdCvt                       0      0.00%     79.56% # Class of executed instruction
system.cpu0.op_class::SimdMisc                      0      0.00%     79.56% # Class of executed instruction
system.cpu0.op_class::SimdMult                      0      0.00%     79.56% # Class of executed instruction
system.cpu0.op_class::SimdMultAcc                   0      0.00%     79.56% # Class of executed instruction
system.cpu0.op_class::SimdShift                     0      0.00%     79.56% # Class of executed instruction
system.cpu0.op_class::SimdShiftAcc                  0      0.00%     79.56% # Class of executed instruction
system.cpu0.op_class::SimdSqrt                      0      0.00%     79.56% # Class of executed instruction
system.cpu0.op_class::SimdFloatAdd                  0      0.00%     79.56% # Class of executed instruction
system.cpu0.op_class::SimdFloatAlu                  0      0.00%     79.56% # Class of executed instruction
system.cpu0.op_class::SimdFloatCmp                  0      0.00%     79.56% # Class of executed instruction
system.cpu0.op_class::SimdFloatCvt                  0      0.00%     79.56% # Class of executed instruction
system.cpu0.op_class::SimdFloatDiv                  0      0.00%     79.56% # Class of executed instruction
system.cpu0.op_class::SimdFloatMisc                 0      0.00%     79.56% # Class of executed instruction
system.cpu0.op_class::SimdFloatMult                 0      0.00%     79.56% # Class of executed instruction
system.cpu0.op_class::SimdFloatMultAcc              0      0.00%     79.56% # Class of executed instruction
system.cpu0.op_class::SimdFloatSqrt                 0      0.00%     79.56% # Class of executed instruction
system.cpu0.op_class::MemRead                 1024562     12.65%     92.20% # Class of executed instruction
system.cpu0.op_class::MemWrite                 631536      7.80%    100.00% # Class of executed instruction
system.cpu0.op_class::IprAccess                     0      0.00%    100.00% # Class of executed instruction
system.cpu0.op_class::InstPrefetch                  0      0.00%    100.00% # Class of executed instruction
system.cpu0.op_class::total                   8100756                       # Class of executed instruction
system.cpu1.apic_clk_domain.clock                8000                       # Clock period in ticks
system.cpu1.numCycles                      4807395649                       # number of cpu cycles simulated
system.cpu1.numWorkItemsStarted                     0                       # number of work items this cpu started
system.cpu1.numWorkItemsCompleted                   0                       # number of work items this cpu completed
system.cpu1.kern.inst.arm                           0                       # number of arm instructions executed
system.cpu1.kern.inst.quiesce                       0                       # number of quiesce instructions executed
system.cpu1.committedInsts                 1297735933                       # Number of instructions committed
system.cpu1.committedOps                   2349202984                       # Number of ops (including micro ops) committed
system.cpu1.num_int_alu_accesses           1507222777                       # Number of integer alu accesses
system.cpu1.num_fp_alu_accesses            1130300518                       # Number of float alu accesses
system.cpu1.num_func_calls                     803085                       # number of times a function call or return occured
system.cpu1.num_conditional_control_insts    160945778                       # number of instructions that are conditional controls
system.cpu1.num_int_insts                  1507222777                       # number of integer instructions
system.cpu1.num_fp_insts                   1130300518                       # number of float instructions
system.cpu1.num_int_register_reads         2941048981                       # number of times the integer registers were read
system.cpu1.num_int_register_writes        1034200645                       # number of times the integer registers were written
system.cpu1.num_fp_register_reads          1382500686                       # number of times the floating registers were read
system.cpu1.num_fp_register_writes         1075410587                       # number of times the floating registers were written
system.cpu1.num_cc_register_reads           939441093                       # number of times the CC registers were read
system.cpu1.num_cc_register_writes          528254321                       # number of times the CC registers were written
system.cpu1.num_mem_refs                    388403048                       # number of memory refs
system.cpu1.num_load_insts                  350002053                       # Number of load instructions
system.cpu1.num_store_insts                  38400995                       # Number of store instructions
system.cpu1.num_idle_cycles              24238797.460268                       # Number of idle cycles
system.cpu1.num_busy_cycles              4783156851.539732                       # Number of busy cycles
system.cpu1.not_idle_fraction                0.994958                       # Percentage of non-idle cycles
system.cpu1.idle_fraction                    0.005042                       # Percentage of idle cycles
system.cpu1.Branches                        166341376                       # Number of branches fetched
system.cpu1.op_class::No_OpClass              3904412      0.17%      0.17% # Class of executed instruction
system.cpu1.op_class::IntAlu               1229197846     52.32%     52.49% # Class of executed instruction
system.cpu1.op_class::IntMult                 4268640      0.18%     52.67% # Class of executed instruction
system.cpu1.op_class::IntDiv                      931      0.00%     52.67% # Class of executed instruction
system.cpu1.op_class::FloatAdd              723444434     30.80%     83.47% # Class of executed instruction
system.cpu1.op_class::FloatCmp                      0      0.00%     83.47% # Class of executed instruction
system.cpu1.op_class::FloatCvt                      0      0.00%     83.47% # Class of executed instruction
system.cpu1.op_class::FloatMult                     0      0.00%     83.47% # Class of executed instruction
system.cpu1.op_class::FloatDiv                      0      0.00%     83.47% # Class of executed instruction
system.cpu1.op_class::FloatSqrt                     0      0.00%     83.47% # Class of executed instruction
system.cpu1.op_class::SimdAdd                       0      0.00%     83.47% # Class of executed instruction
system.cpu1.op_class::SimdAddAcc                    0      0.00%     83.47% # Class of executed instruction
system.cpu1.op_class::SimdAlu                       0      0.00%     83.47% # Class of executed instruction
system.cpu1.op_class::SimdCmp                       0      0.00%     83.47% # Class of executed instruction
system.cpu1.op_class::SimdCvt                       0      0.00%     83.47% # Class of executed instruction
system.cpu1.op_class::SimdMisc                      0      0.00%     83.47% # Class of executed instruction
system.cpu1.op_class::SimdMult                      0      0.00%     83.47% # Class of executed instruction
system.cpu1.op_class::SimdMultAcc                   0      0.00%     83.47% # Class of executed instruction
system.cpu1.op_class::SimdShift                     0      0.00%     83.47% # Class of executed instruction
system.cpu1.op_class::SimdShiftAcc                  0      0.00%     83.47% # Class of executed instruction
system.cpu1.op_class::SimdSqrt                      0      0.00%     83.47% # Class of executed instruction
system.cpu1.op_class::SimdFloatAdd                  0      0.00%     83.47% # Class of executed instruction
system.cpu1.op_class::SimdFloatAlu                  0      0.00%     83.47% # Class of executed instruction
system.cpu1.op_class::SimdFloatCmp                  0      0.00%     83.47% # Class of executed instruction
system.cpu1.op_class::SimdFloatCvt                  0      0.00%     83.47% # Class of executed instruction
system.cpu1.op_class::SimdFloatDiv                  0      0.00%     83.47% # Class of executed instruction
system.cpu1.op_class::SimdFloatMisc                 0      0.00%     83.47% # Class of executed instruction
system.cpu1.op_class::SimdFloatMult                 0      0.00%     83.47% # Class of executed instruction
system.cpu1.op_class::SimdFloatMultAcc              0      0.00%     83.47% # Class of executed instruction
system.cpu1.op_class::SimdFloatSqrt                 0      0.00%     83.47% # Class of executed instruction
system.cpu1.op_class::MemRead               350002053     14.90%     98.37% # Class of executed instruction
system.cpu1.op_class::MemWrite               38400995      1.63%    100.00% # Class of executed instruction
system.cpu1.op_class::IprAccess                     0      0.00%    100.00% # Class of executed instruction
system.cpu1.op_class::InstPrefetch                  0      0.00%    100.00% # Class of executed instruction
system.cpu1.op_class::total                2349219311                       # Class of executed instruction
system.cpu2.apic_clk_domain.clock                8000                       # Clock period in ticks
system.cpu2.numCycles                      4810194021                       # number of cpu cycles simulated
system.cpu2.numWorkItemsStarted                     0                       # number of work items this cpu started
system.cpu2.numWorkItemsCompleted                   0                       # number of work items this cpu completed
system.cpu2.kern.inst.arm                           0                       # number of arm instructions executed
system.cpu2.kern.inst.quiesce                       0                       # number of quiesce instructions executed
system.cpu2.committedInsts                    4701301                       # Number of instructions committed
system.cpu2.committedOps                      9467728                       # Number of ops (including micro ops) committed
system.cpu2.num_int_alu_accesses              9296466                       # Number of integer alu accesses
system.cpu2.num_fp_alu_accesses                  1778                       # Number of float alu accesses
system.cpu2.num_func_calls                     245112                       # number of times a function call or return occured
system.cpu2.num_conditional_control_insts       810847                       # number of instructions that are conditional controls
system.cpu2.num_int_insts                     9296466                       # number of integer instructions
system.cpu2.num_fp_insts                         1778                       # number of float instructions
system.cpu2.num_int_register_reads           18406732                       # number of times the integer registers were read
system.cpu2.num_int_register_writes           7571929                       # number of times the integer registers were written
system.cpu2.num_fp_register_reads                2988                       # number of times the floating registers were read
system.cpu2.num_fp_register_writes               1416                       # number of times the floating registers were written
system.cpu2.num_cc_register_reads             6066250                       # number of times the CC registers were read
system.cpu2.num_cc_register_writes            3224263                       # number of times the CC registers were written
system.cpu2.num_mem_refs                      2109567                       # number of memory refs
system.cpu2.num_load_insts                    1367916                       # Number of load instructions
system.cpu2.num_store_insts                    741651                       # Number of store instructions
system.cpu2.num_idle_cycles              4787984423.757443                       # Number of idle cycles
system.cpu2.num_busy_cycles              22209597.242557                       # Number of busy cycles
system.cpu2.not_idle_fraction                0.004617                       # Percentage of non-idle cycles
system.cpu2.idle_fraction                    0.995383                       # Percentage of idle cycles
system.cpu2.Branches                          1101736                       # Number of branches fetched
system.cpu2.op_class::No_OpClass                74796      0.79%      0.79% # Class of executed instruction
system.cpu2.op_class::IntAlu                  7248446     76.56%     77.35% # Class of executed instruction
system.cpu2.op_class::IntMult                    8518      0.09%     77.44% # Class of executed instruction
system.cpu2.op_class::IntDiv                    25146      0.27%     77.70% # Class of executed instruction
system.cpu2.op_class::FloatAdd                   1344      0.01%     77.72% # Class of executed instruction
system.cpu2.op_class::FloatCmp                      0      0.00%     77.72% # Class of executed instruction
system.cpu2.op_class::FloatCvt                      0      0.00%     77.72% # Class of executed instruction
system.cpu2.op_class::FloatMult                     0      0.00%     77.72% # Class of executed instruction
system.cpu2.op_class::FloatDiv                      0      0.00%     77.72% # Class of executed instruction
system.cpu2.op_class::FloatSqrt                     0      0.00%     77.72% # Class of executed instruction
system.cpu2.op_class::SimdAdd                       0      0.00%     77.72% # Class of executed instruction
system.cpu2.op_class::SimdAddAcc                    0      0.00%     77.72% # Class of executed instruction
system.cpu2.op_class::SimdAlu                       0      0.00%     77.72% # Class of executed instruction
system.cpu2.op_class::SimdCmp                       0      0.00%     77.72% # Class of executed instruction
system.cpu2.op_class::SimdCvt                       0      0.00%     77.72% # Class of executed instruction
system.cpu2.op_class::SimdMisc                      0      0.00%     77.72% # Class of executed instruction
system.cpu2.op_class::SimdMult                      0      0.00%     77.72% # Class of executed instruction
system.cpu2.op_class::SimdMultAcc                   0      0.00%     77.72% # Class of executed instruction
system.cpu2.op_class::SimdShift                     0      0.00%     77.72% # Class of executed instruction
system.cpu2.op_class::SimdShiftAcc                  0      0.00%     77.72% # Class of executed instruction
system.cpu2.op_class::SimdSqrt                      0      0.00%     77.72% # Class of executed instruction
system.cpu2.op_class::SimdFloatAdd                  0      0.00%     77.72% # Class of executed instruction
system.cpu2.op_class::SimdFloatAlu                  0      0.00%     77.72% # Class of executed instruction
system.cpu2.op_class::SimdFloatCmp                  0      0.00%     77.72% # Class of executed instruction
system.cpu2.op_class::SimdFloatCvt                  0      0.00%     77.72% # Class of executed instruction
system.cpu2.op_class::SimdFloatDiv                  0      0.00%     77.72% # Class of executed instruction
system.cpu2.op_class::SimdFloatMisc                 0      0.00%     77.72% # Class of executed instruction
system.cpu2.op_class::SimdFloatMult                 0      0.00%     77.72% # Class of executed instruction
system.cpu2.op_class::SimdFloatMultAcc              0      0.00%     77.72% # Class of executed instruction
system.cpu2.op_class::SimdFloatSqrt                 0      0.00%     77.72% # Class of executed instruction
system.cpu2.op_class::MemRead                 1367916     14.45%     92.17% # Class of executed instruction
system.cpu2.op_class::MemWrite                 741651      7.83%    100.00% # Class of executed instruction
system.cpu2.op_class::IprAccess                     0      0.00%    100.00% # Class of executed instruction
system.cpu2.op_class::InstPrefetch                  0      0.00%    100.00% # Class of executed instruction
system.cpu2.op_class::total                   9467817                       # Class of executed instruction
system.cpu3.apic_clk_domain.clock                8000                       # Clock period in ticks
system.cpu3.numCycles                      4816604936                       # number of cpu cycles simulated
system.cpu3.numWorkItemsStarted                     0                       # number of work items this cpu started
system.cpu3.numWorkItemsCompleted                   0                       # number of work items this cpu completed
system.cpu3.kern.inst.arm                           0                       # number of arm instructions executed
system.cpu3.kern.inst.quiesce                       0                       # number of quiesce instructions executed
system.cpu3.committedInsts                    1901678                       # Number of instructions committed
system.cpu3.committedOps                      4067999                       # Number of ops (including micro ops) committed
system.cpu3.num_int_alu_accesses              3984751                       # Number of integer alu accesses
system.cpu3.num_fp_alu_accesses                    39                       # Number of float alu accesses
system.cpu3.num_func_calls                     108438                       # number of times a function call or return occured
system.cpu3.num_conditional_control_insts       313213                       # number of instructions that are conditional controls
system.cpu3.num_int_insts                     3984751                       # number of integer instructions
system.cpu3.num_fp_insts                           39                       # number of float instructions
system.cpu3.num_int_register_reads            7968869                       # number of times the integer registers were read
system.cpu3.num_int_register_writes           3289462                       # number of times the integer registers were written
system.cpu3.num_fp_register_reads                  63                       # number of times the floating registers were read
system.cpu3.num_fp_register_writes                 31                       # number of times the floating registers were written
system.cpu3.num_cc_register_reads             2420068                       # number of times the CC registers were read
system.cpu3.num_cc_register_writes            1243208                       # number of times the CC registers were written
system.cpu3.num_mem_refs                       926198                       # number of memory refs
system.cpu3.num_load_insts                     576416                       # Number of load instructions
system.cpu3.num_store_insts                    349782                       # Number of store instructions
system.cpu3.num_idle_cycles              4807300113.633473                       # Number of idle cycles
system.cpu3.num_busy_cycles              9304822.366526                       # Number of busy cycles
system.cpu3.not_idle_fraction                0.001932                       # Percentage of non-idle cycles
system.cpu3.idle_fraction                    0.998068                       # Percentage of idle cycles
system.cpu3.Branches                           456557                       # Number of branches fetched
system.cpu3.op_class::No_OpClass                68383      1.68%      1.68% # Class of executed instruction
system.cpu3.op_class::IntAlu                  3041776     74.77%     76.45% # Class of executed instruction
system.cpu3.op_class::IntMult                    7527      0.19%     76.64% # Class of executed instruction
system.cpu3.op_class::IntDiv                    24107      0.59%     77.23% # Class of executed instruction
system.cpu3.op_class::FloatAdd                     30      0.00%     77.23% # Class of executed instruction
system.cpu3.op_class::FloatCmp                      0      0.00%     77.23% # Class of executed instruction
system.cpu3.op_class::FloatCvt                      0      0.00%     77.23% # Class of executed instruction
system.cpu3.op_class::FloatMult                     0      0.00%     77.23% # Class of executed instruction
system.cpu3.op_class::FloatDiv                      0      0.00%     77.23% # Class of executed instruction
system.cpu3.op_class::FloatSqrt                     0      0.00%     77.23% # Class of executed instruction
system.cpu3.op_class::SimdAdd                       0      0.00%     77.23% # Class of executed instruction
system.cpu3.op_class::SimdAddAcc                    0      0.00%     77.23% # Class of executed instruction
system.cpu3.op_class::SimdAlu                       0      0.00%     77.23% # Class of executed instruction
system.cpu3.op_class::SimdCmp                       0      0.00%     77.23% # Class of executed instruction
system.cpu3.op_class::SimdCvt                       0      0.00%     77.23% # Class of executed instruction
system.cpu3.op_class::SimdMisc                      0      0.00%     77.23% # Class of executed instruction
system.cpu3.op_class::SimdMult                      0      0.00%     77.23% # Class of executed instruction
system.cpu3.op_class::SimdMultAcc                   0      0.00%     77.23% # Class of executed instruction
system.cpu3.op_class::SimdShift                     0      0.00%     77.23% # Class of executed instruction
system.cpu3.op_class::SimdShiftAcc                  0      0.00%     77.23% # Class of executed instruction
system.cpu3.op_class::SimdSqrt                      0      0.00%     77.23% # Class of executed instruction
system.cpu3.op_class::SimdFloatAdd                  0      0.00%     77.23% # Class of executed instruction
system.cpu3.op_class::SimdFloatAlu                  0      0.00%     77.23% # Class of executed instruction
system.cpu3.op_class::SimdFloatCmp                  0      0.00%     77.23% # Class of executed instruction
system.cpu3.op_class::SimdFloatCvt                  0      0.00%     77.23% # Class of executed instruction
system.cpu3.op_class::SimdFloatDiv                  0      0.00%     77.23% # Class of executed instruction
system.cpu3.op_class::SimdFloatMisc                 0      0.00%     77.23% # Class of executed instruction
system.cpu3.op_class::SimdFloatMult                 0      0.00%     77.23% # Class of executed instruction
system.cpu3.op_class::SimdFloatMultAcc              0      0.00%     77.23% # Class of executed instruction
system.cpu3.op_class::SimdFloatSqrt                 0      0.00%     77.23% # Class of executed instruction
system.cpu3.op_class::MemRead                  576416     14.17%     91.40% # Class of executed instruction
system.cpu3.op_class::MemWrite                 349782      8.60%    100.00% # Class of executed instruction
system.cpu3.op_class::IprAccess                     0      0.00%    100.00% # Class of executed instruction
system.cpu3.op_class::InstPrefetch                  0      0.00%    100.00% # Class of executed instruction
system.cpu3.op_class::total                   4068021                       # Class of executed instruction
system.iobus.trans_dist::ReadReq                  406                       # Transaction distribution
system.iobus.trans_dist::ReadResp                 406                       # Transaction distribution
system.iobus.trans_dist::WriteReq                3119                       # Transaction distribution
system.iobus.trans_dist::WriteResp               3119                       # Transaction distribution
system.iobus.trans_dist::MessageReq                56                       # Transaction distribution
system.iobus.trans_dist::MessageResp               56                       # Transaction distribution
system.iobus.pkt_count_system.pc.south_bridge.io_apic.int_master::system.ruby.l0_cntrl0.sequencer.pio-slave-port           22                       # Packet count per connected master and slave (bytes)
system.iobus.pkt_count_system.pc.south_bridge.io_apic.int_master::system.ruby.l0_cntrl1.sequencer.pio-slave-port           22                       # Packet count per connected master and slave (bytes)
system.iobus.pkt_count_system.pc.south_bridge.io_apic.int_master::system.ruby.l0_cntrl2.sequencer.pio-slave-port           22                       # Packet count per connected master and slave (bytes)
system.iobus.pkt_count_system.pc.south_bridge.io_apic.int_master::system.ruby.l0_cntrl3.sequencer.pio-slave-port           24                       # Packet count per connected master and slave (bytes)
system.iobus.pkt_count_system.pc.south_bridge.io_apic.int_master::total           90                       # Packet count per connected master and slave (bytes)
system.iobus.pkt_count_system.ruby.l0_cntrl0.sequencer.mem-master-port::system.pc.south_bridge.ide.pio          460                       # Packet count per connected master and slave (bytes)
system.iobus.pkt_count_system.ruby.l0_cntrl0.sequencer.mem-master-port::system.pc.south_bridge.io_apic.pio            8                       # Packet count per connected master and slave (bytes)
system.iobus.pkt_count_system.ruby.l0_cntrl0.sequencer.mem-master-port::system.ruby.l0_cntrl0.sequencer.pio-slave-port         1258                       # Packet count per connected master and slave (bytes)
system.iobus.pkt_count_system.ruby.l0_cntrl0.sequencer.mem-master-port::system.ruby.l0_cntrl1.sequencer.pio-slave-port            6                       # Packet count per connected master and slave (bytes)
system.iobus.pkt_count_system.ruby.l0_cntrl0.sequencer.mem-master-port::system.ruby.l0_cntrl3.sequencer.pio-slave-port            2                       # Packet count per connected master and slave (bytes)
system.iobus.pkt_count_system.ruby.l0_cntrl0.sequencer.mem-master-port::total         1734                       # Packet count per connected master and slave (bytes)
system.iobus.pkt_count_system.ruby.l0_cntrl1.sequencer.mem-master-port::system.pc.south_bridge.ide.pio          596                       # Packet count per connected master and slave (bytes)
system.iobus.pkt_count_system.ruby.l0_cntrl1.sequencer.mem-master-port::system.pc.south_bridge.io_apic.pio            8                       # Packet count per connected master and slave (bytes)
system.iobus.pkt_count_system.ruby.l0_cntrl1.sequencer.mem-master-port::system.ruby.l0_cntrl0.sequencer.pio-slave-port            4                       # Packet count per connected master and slave (bytes)
system.iobus.pkt_count_system.ruby.l0_cntrl1.sequencer.mem-master-port::system.ruby.l0_cntrl1.sequencer.pio-slave-port         1250                       # Packet count per connected master and slave (bytes)
system.iobus.pkt_count_system.ruby.l0_cntrl1.sequencer.mem-master-port::system.ruby.l0_cntrl2.sequencer.pio-slave-port            2                       # Packet count per connected master and slave (bytes)
system.iobus.pkt_count_system.ruby.l0_cntrl1.sequencer.mem-master-port::total         1860                       # Packet count per connected master and slave (bytes)
system.iobus.pkt_count_system.ruby.l0_cntrl2.sequencer.mem-master-port::system.pc.south_bridge.ide.pio          358                       # Packet count per connected master and slave (bytes)
system.iobus.pkt_count_system.ruby.l0_cntrl2.sequencer.mem-master-port::system.pc.south_bridge.io_apic.pio            6                       # Packet count per connected master and slave (bytes)
system.iobus.pkt_count_system.ruby.l0_cntrl2.sequencer.mem-master-port::system.pc.com_1.pio           22                       # Packet count per connected master and slave (bytes)
system.iobus.pkt_count_system.ruby.l0_cntrl2.sequencer.mem-master-port::system.ruby.l0_cntrl0.sequencer.pio-slave-port            2                       # Packet count per connected master and slave (bytes)
system.iobus.pkt_count_system.ruby.l0_cntrl2.sequencer.mem-master-port::system.ruby.l0_cntrl1.sequencer.pio-slave-port            2                       # Packet count per connected master and slave (bytes)
system.iobus.pkt_count_system.ruby.l0_cntrl2.sequencer.mem-master-port::system.ruby.l0_cntrl2.sequencer.pio-slave-port         1244                       # Packet count per connected master and slave (bytes)
system.iobus.pkt_count_system.ruby.l0_cntrl2.sequencer.mem-master-port::system.ruby.l0_cntrl3.sequencer.pio-slave-port            2                       # Packet count per connected master and slave (bytes)
system.iobus.pkt_count_system.ruby.l0_cntrl2.sequencer.mem-master-port::total         1636                       # Packet count per connected master and slave (bytes)
system.iobus.pkt_count_system.ruby.l0_cntrl3.sequencer.mem-master-port::system.pc.south_bridge.ide.pio          426                       # Packet count per connected master and slave (bytes)
system.iobus.pkt_count_system.ruby.l0_cntrl3.sequencer.mem-master-port::system.pc.south_bridge.io_apic.pio           14                       # Packet count per connected master and slave (bytes)
system.iobus.pkt_count_system.ruby.l0_cntrl3.sequencer.mem-master-port::system.pc.com_1.pio          162                       # Packet count per connected master and slave (bytes)
system.iobus.pkt_count_system.ruby.l0_cntrl3.sequencer.mem-master-port::system.ruby.l0_cntrl0.sequencer.pio-slave-port            2                       # Packet count per connected master and slave (bytes)
system.iobus.pkt_count_system.ruby.l0_cntrl3.sequencer.mem-master-port::system.ruby.l0_cntrl3.sequencer.pio-slave-port         1238                       # Packet count per connected master and slave (bytes)
system.iobus.pkt_count_system.ruby.l0_cntrl3.sequencer.mem-master-port::total         1842                       # Packet count per connected master and slave (bytes)
system.iobus.pkt_count::total                    7162                       # Packet count per connected master and slave (bytes)
system.iobus.pkt_size_system.pc.south_bridge.io_apic.int_master::system.ruby.l0_cntrl0.sequencer.pio-slave-port           44                       # Cumulative packet size per connected master and slave (bytes)
system.iobus.pkt_size_system.pc.south_bridge.io_apic.int_master::system.ruby.l0_cntrl1.sequencer.pio-slave-port           44                       # Cumulative packet size per connected master and slave (bytes)
system.iobus.pkt_size_system.pc.south_bridge.io_apic.int_master::system.ruby.l0_cntrl2.sequencer.pio-slave-port           44                       # Cumulative packet size per connected master and slave (bytes)
system.iobus.pkt_size_system.pc.south_bridge.io_apic.int_master::system.ruby.l0_cntrl3.sequencer.pio-slave-port           48                       # Cumulative packet size per connected master and slave (bytes)
system.iobus.pkt_size_system.pc.south_bridge.io_apic.int_master::total          180                       # Cumulative packet size per connected master and slave (bytes)
system.iobus.pkt_size_system.ruby.l0_cntrl0.sequencer.mem-master-port::system.pc.south_bridge.ide.pio          260                       # Cumulative packet size per connected master and slave (bytes)
system.iobus.pkt_size_system.ruby.l0_cntrl0.sequencer.mem-master-port::system.pc.south_bridge.io_apic.pio           16                       # Cumulative packet size per connected master and slave (bytes)
system.iobus.pkt_size_system.ruby.l0_cntrl0.sequencer.mem-master-port::system.ruby.l0_cntrl0.sequencer.pio-slave-port         2516                       # Cumulative packet size per connected master and slave (bytes)
system.iobus.pkt_size_system.ruby.l0_cntrl0.sequencer.mem-master-port::system.ruby.l0_cntrl1.sequencer.pio-slave-port           12                       # Cumulative packet size per connected master and slave (bytes)
system.iobus.pkt_size_system.ruby.l0_cntrl0.sequencer.mem-master-port::system.ruby.l0_cntrl3.sequencer.pio-slave-port            4                       # Cumulative packet size per connected master and slave (bytes)
system.iobus.pkt_size_system.ruby.l0_cntrl0.sequencer.mem-master-port::total         2808                       # Cumulative packet size per connected master and slave (bytes)
system.iobus.pkt_size_system.ruby.l0_cntrl1.sequencer.mem-master-port::system.pc.south_bridge.ide.pio          340                       # Cumulative packet size per connected master and slave (bytes)
system.iobus.pkt_size_system.ruby.l0_cntrl1.sequencer.mem-master-port::system.pc.south_bridge.io_apic.pio           16                       # Cumulative packet size per connected master and slave (bytes)
system.iobus.pkt_size_system.ruby.l0_cntrl1.sequencer.mem-master-port::system.ruby.l0_cntrl0.sequencer.pio-slave-port            8                       # Cumulative packet size per connected master and slave (bytes)
system.iobus.pkt_size_system.ruby.l0_cntrl1.sequencer.mem-master-port::system.ruby.l0_cntrl1.sequencer.pio-slave-port         2500                       # Cumulative packet size per connected master and slave (bytes)
system.iobus.pkt_size_system.ruby.l0_cntrl1.sequencer.mem-master-port::system.ruby.l0_cntrl2.sequencer.pio-slave-port            4                       # Cumulative packet size per connected master and slave (bytes)
system.iobus.pkt_size_system.ruby.l0_cntrl1.sequencer.mem-master-port::total         2868                       # Cumulative packet size per connected master and slave (bytes)
system.iobus.pkt_size_system.ruby.l0_cntrl2.sequencer.mem-master-port::system.pc.south_bridge.ide.pio          200                       # Cumulative packet size per connected master and slave (bytes)
system.iobus.pkt_size_system.ruby.l0_cntrl2.sequencer.mem-master-port::system.pc.south_bridge.io_apic.pio           12                       # Cumulative packet size per connected master and slave (bytes)
system.iobus.pkt_size_system.ruby.l0_cntrl2.sequencer.mem-master-port::system.pc.com_1.pio           11                       # Cumulative packet size per connected master and slave (bytes)
system.iobus.pkt_size_system.ruby.l0_cntrl2.sequencer.mem-master-port::system.ruby.l0_cntrl0.sequencer.pio-slave-port            4                       # Cumulative packet size per connected master and slave (bytes)
system.iobus.pkt_size_system.ruby.l0_cntrl2.sequencer.mem-master-port::system.ruby.l0_cntrl1.sequencer.pio-slave-port            4                       # Cumulative packet size per connected master and slave (bytes)
system.iobus.pkt_size_system.ruby.l0_cntrl2.sequencer.mem-master-port::system.ruby.l0_cntrl2.sequencer.pio-slave-port         2488                       # Cumulative packet size per connected master and slave (bytes)
system.iobus.pkt_size_system.ruby.l0_cntrl2.sequencer.mem-master-port::system.ruby.l0_cntrl3.sequencer.pio-slave-port            4                       # Cumulative packet size per connected master and slave (bytes)
system.iobus.pkt_size_system.ruby.l0_cntrl2.sequencer.mem-master-port::total         2723                       # Cumulative packet size per connected master and slave (bytes)
system.iobus.pkt_size_system.ruby.l0_cntrl3.sequencer.mem-master-port::system.pc.south_bridge.ide.pio          240                       # Cumulative packet size per connected master and slave (bytes)
system.iobus.pkt_size_system.ruby.l0_cntrl3.sequencer.mem-master-port::system.pc.south_bridge.io_apic.pio           28                       # Cumulative packet size per connected master and slave (bytes)
system.iobus.pkt_size_system.ruby.l0_cntrl3.sequencer.mem-master-port::system.pc.com_1.pio           81                       # Cumulative packet size per connected master and slave (bytes)
system.iobus.pkt_size_system.ruby.l0_cntrl3.sequencer.mem-master-port::system.ruby.l0_cntrl0.sequencer.pio-slave-port            4                       # Cumulative packet size per connected master and slave (bytes)
system.iobus.pkt_size_system.ruby.l0_cntrl3.sequencer.mem-master-port::system.ruby.l0_cntrl3.sequencer.pio-slave-port         2476                       # Cumulative packet size per connected master and slave (bytes)
system.iobus.pkt_size_system.ruby.l0_cntrl3.sequencer.mem-master-port::total         2829                       # Cumulative packet size per connected master and slave (bytes)
system.iobus.pkt_size::total                    11408                       # Cumulative packet size per connected master and slave (bytes)
system.iobus.reqLayer2.occupancy              1595000                       # Layer occupancy (ticks)
system.iobus.reqLayer2.utilization                0.0                       # Layer utilization (%)
system.iobus.reqLayer8.occupancy                33496                       # Layer occupancy (ticks)
system.iobus.reqLayer8.utilization                0.0                       # Layer utilization (%)
system.iobus.reqLayer12.occupancy              121000                       # Layer occupancy (ticks)
system.iobus.reqLayer12.utilization               0.0                       # Layer utilization (%)
system.iobus.reqLayer17.occupancy             1560489                       # Layer occupancy (ticks)
system.iobus.reqLayer17.utilization               0.0                       # Layer utilization (%)
system.iobus.reqLayer18.occupancy             1702465                       # Layer occupancy (ticks)
system.iobus.reqLayer18.utilization               0.0                       # Layer utilization (%)
system.iobus.reqLayer19.occupancy             1523988                       # Layer occupancy (ticks)
system.iobus.reqLayer19.utilization               0.0                       # Layer utilization (%)
system.iobus.reqLayer20.occupancy             1523490                       # Layer occupancy (ticks)
system.iobus.reqLayer20.utilization               0.0                       # Layer utilization (%)
system.iobus.respLayer0.occupancy               77960                       # Layer occupancy (ticks)
system.iobus.respLayer0.utilization               0.0                       # Layer utilization (%)
system.iobus.respLayer2.occupancy             1269000                       # Layer occupancy (ticks)
system.iobus.respLayer2.utilization               0.0                       # Layer utilization (%)
system.iobus.respLayer4.occupancy             1344000                       # Layer occupancy (ticks)
system.iobus.respLayer4.utilization               0.0                       # Layer utilization (%)
system.iobus.respLayer6.occupancy             1209500                       # Layer occupancy (ticks)
system.iobus.respLayer6.utilization               0.0                       # Layer utilization (%)
system.iobus.respLayer8.occupancy             1369500                       # Layer occupancy (ticks)
system.iobus.respLayer8.utilization               0.0                       # Layer utilization (%)
system.pc.south_bridge.ide.disks.dma_read_full_pages          356                       # Number of full page size DMA reads (not PRD).
system.pc.south_bridge.ide.disks.dma_read_bytes      1458176                       # Number of bytes transfered via DMA reads (not PRD).
system.pc.south_bridge.ide.disks.dma_read_txs          356                       # Number of DMA read transactions (not PRD).
system.pc.south_bridge.ide.disks.dma_write_full_pages            0                       # Number of full page size DMA writes.
system.pc.south_bridge.ide.disks.dma_write_bytes            0                       # Number of bytes transfered via DMA writes.
system.pc.south_bridge.ide.disks.dma_write_txs            0                       # Number of DMA write transactions.
system.ruby.clk_domain.clock                      500                       # Clock period in ticks
system.ruby.delayHist::bucket_size                  4                       # delay histogram for all message
system.ruby.delayHist::max_bucket                  39                       # delay histogram for all message
system.ruby.delayHist::samples               38439275                       # delay histogram for all message
system.ruby.delayHist::mean                  0.219685                       # delay histogram for all message
system.ruby.delayHist::stdev                 1.307457                       # delay histogram for all message
system.ruby.delayHist                    |    37386678     97.26%     97.26% |        1220      0.00%     97.26% |     1050671      2.73%    100.00% |         167      0.00%    100.00% |         502      0.00%    100.00% |           4      0.00%    100.00% |          33      0.00%    100.00% |           0      0.00%    100.00% |           0      0.00%    100.00% |           0      0.00%    100.00% # delay histogram for all message
system.ruby.delayHist::total                 38439275                       # delay histogram for all message
system.ruby.outstanding_req_hist_seqr::bucket_size            1                      
system.ruby.outstanding_req_hist_seqr::max_bucket            9                      
system.ruby.outstanding_req_hist_seqr::samples   2274060430                      
system.ruby.outstanding_req_hist_seqr::mean     1.001962                      
system.ruby.outstanding_req_hist_seqr::gmean     1.001361                      
system.ruby.outstanding_req_hist_seqr::stdev     0.044255                      
system.ruby.outstanding_req_hist_seqr    |           0      0.00%      0.00% |  2269597861     99.80%     99.80% |     4462569      0.20%    100.00% |           0      0.00%    100.00% |           0      0.00%    100.00% |           0      0.00%    100.00% |           0      0.00%    100.00% |           0      0.00%    100.00% |           0      0.00%    100.00% |           0      0.00%    100.00%
system.ruby.outstanding_req_hist_seqr::total   2274060430                      
system.ruby.latency_hist_seqr::bucket_size          256                      
system.ruby.latency_hist_seqr::max_bucket         2559                      
system.ruby.latency_hist_seqr::samples     2274060430                      
system.ruby.latency_hist_seqr::mean          1.130788                      
system.ruby.latency_hist_seqr::gmean         1.019742                      
system.ruby.latency_hist_seqr::stdev         4.141058                      
[...]
system.ruby.L1Cache_Controller.I.Load    |       79357      3.49%      3.49% |     1761597     77.40%     80.89% |      382473     16.80%     97.69% |       52531      2.31%    100.00%
system.ruby.L1Cache_Controller.I.Load::total      2275958                      
system.ruby.L1Cache_Controller.I.Store   |       14554      2.45%      2.45% |      489937     82.52%     84.97% |       77701     13.09%     98.05% |       11563      1.95%    100.00%
system.ruby.L1Cache_Controller.I.Store::total       593755                      
system.ruby.L1Cache_Controller.I.Inv     |        2676     19.92%     19.92% |        5760     42.88%     62.80% |        3353     24.96%     87.76% |        1644     12.24%    100.00%
system.ruby.L1Cache_Controller.I.Inv::total        13433                      
system.ruby.L1Cache_Controller.S.Load    |      195240     13.27%     13.27% |      815257     55.41%     68.68% |      268313     18.24%     86.92% |      192453     13.08%    100.00%
system.ruby.L1Cache_Controller.S.Load::total      1471263                      
system.ruby.L1Cache_Controller.S.Store   |        4168     37.77%     37.77% |        2259     20.47%     58.25% |        2299     20.84%     79.08% |        2308     20.92%    100.00%
system.ruby.L1Cache_Controller.S.Store::total        11034                      
system.ruby.L1Cache_Controller.S.L0_Invalidate_Own |       13658      8.41%      8.41% |       84183     51.82%     60.23% |       51694     31.82%     92.06% |       12904      7.94%    100.00%
system.ruby.L1Cache_Controller.S.L0_Invalidate_Own::total       162439                      
system.ruby.L1Cache_Controller.S.L0_Invalidate_Else |       11844     27.41%     27.41% |        2903      6.72%     34.13% |       13437     31.10%     65.23% |       15026     34.77%    100.00%
system.ruby.L1Cache_Controller.S.L0_Invalidate_Else::total        43210                      
system.ruby.L1Cache_Controller.SS.Load   |        3893     37.00%     37.00% |        1007      9.57%     46.56% |        3778     35.90%     82.47% |        1845     17.53%    100.00%
system.ruby.L1Cache_Controller.SS.Load::total        10523                      
system.ruby.L1Cache_Controller.SS.Store  |        2382     46.98%     46.98% |         337      6.65%     53.63% |        1233     24.32%     77.95% |        1118     22.05%    100.00%
system.ruby.L1Cache_Controller.SS.Store::total         5070                      
system.ruby.L1Cache_Controller.SS.Inv    |       13291     26.53%     26.53% |        4007      8.00%     34.53% |       15932     31.80%     66.33% |       16866     33.67%    100.00%
system.ruby.L1Cache_Controller.SS.Inv::total        50096                      
system.ruby.L1Cache_Controller.SS.L1_Replacement |       14663      8.77%      8.77% |       85819     51.35%     60.13% |       52685     31.53%     91.65% |       13953      8.35%    100.00%
system.ruby.L1Cache_Controller.SS.L1_Replacement::total       167120                      
system.ruby.L1Cache_Controller.E.WriteBack |       52019      2.57%      2.57% |     1637953     80.78%     83.35% |      314060     15.49%     98.84% |       23526      1.16%    100.00%
system.ruby.L1Cache_Controller.E.WriteBack::total      2027558                      
system.ruby.L1Cache_Controller.E.L0_Invalidate_Own |         692      1.78%      1.78% |       35187     90.42%     92.20% |        2979      7.65%     99.85% |          58      0.15%    100.00%
system.ruby.L1Cache_Controller.E.L0_Invalidate_Own::total        38916                      
system.ruby.L1Cache_Controller.E.L0_Invalidate_Else |         674     22.19%     22.19% |         263      8.66%     30.84% |        1514     49.84%     80.68% |         587     19.32%    100.00%
system.ruby.L1Cache_Controller.E.L0_Invalidate_Else::total         3038                      
system.ruby.L1Cache_Controller.EE.Inv    |         217     26.08%     26.08% |          51      6.13%     32.21% |         285     34.25%     66.47% |         279     33.53%    100.00%
system.ruby.L1Cache_Controller.EE.Inv::total          832                      
system.ruby.L1Cache_Controller.EE.L1_Replacement |         691      1.78%      1.78% |       35187     90.42%     92.20% |        2978      7.65%     99.85% |          57      0.15%    100.00%
system.ruby.L1Cache_Controller.EE.L1_Replacement::total        38913                      
system.ruby.L1Cache_Controller.EE.Fwd_GETX |           1     10.00%     10.00% |           3     30.00%     40.00% |           4     40.00%     80.00% |           2     20.00%    100.00%
system.ruby.L1Cache_Controller.EE.Fwd_GETX::total           10                      
system.ruby.L1Cache_Controller.EE.Fwd_GETS |         384     20.39%     20.39% |         185      9.82%     30.22% |        1121     59.53%     89.75% |         193     10.25%    100.00%
system.ruby.L1Cache_Controller.EE.Fwd_GETS::total         1883                      
system.ruby.L1Cache_Controller.M.WriteBack |      201621      0.84%      0.84% |    20535696     85.45%     86.29% |     3178256     13.23%     99.52% |      115862      0.48%    100.00%
system.ruby.L1Cache_Controller.M.WriteBack::total     24031435                      
system.ruby.L1Cache_Controller.M.L0_Invalidate_Own |         716      4.78%      4.78% |        9826     65.58%     70.36% |        4041     26.97%     97.33% |         400      2.67%    100.00%
system.ruby.L1Cache_Controller.M.L0_Invalidate_Own::total        14983                      
system.ruby.L1Cache_Controller.M.L0_Invalidate_Else |        3452     39.95%     39.95% |         573      6.63%     46.59% |        2351     27.21%     73.80% |        2264     26.20%    100.00%
system.ruby.L1Cache_Controller.M.L0_Invalidate_Else::total         8640                      
system.ruby.L1Cache_Controller.MM.Load   |      128562      0.61%      0.61% |    18251063     85.89%     86.50% |     2797580     13.17%     99.66% |       71534      0.34%    100.00%
system.ruby.L1Cache_Controller.MM.Load::total     21248739                      
system.ruby.L1Cache_Controller.MM.Store  |       56121      2.56%      2.56% |     1802497     82.06%     84.62% |      305810     13.92%     98.54% |       32040      1.46%    100.00%
system.ruby.L1Cache_Controller.MM.Store::total      2196468                      
system.ruby.L1Cache_Controller.MM.Inv    |        5026     40.09%     40.09% |         920      7.34%     47.42% |        2922     23.31%     70.73% |        3670     29.27%    100.00%
system.ruby.L1Cache_Controller.MM.Inv::total        12538                      
system.ruby.L1Cache_Controller.MM.L1_Replacement |       59557      2.29%      2.29% |     2125192     81.80%     84.09% |      384704     14.81%     98.90% |       28518      1.10%    100.00%
system.ruby.L1Cache_Controller.MM.L1_Replacement::total      2597971                      
system.ruby.L1Cache_Controller.MM.Fwd_GETX |         458     20.99%     20.99% |         477     21.86%     42.85% |         801     36.71%     79.56% |         446     20.44%    100.00%
system.ruby.L1Cache_Controller.MM.Fwd_GETX::total         2182                      
system.ruby.L1Cache_Controller.MM.Fwd_GETS |        8351     33.37%     33.37% |        3819     15.26%     48.63% |        7450     29.77%     78.40% |        5405     21.60%    100.00%
system.ruby.L1Cache_Controller.MM.Fwd_GETS::total        25025                      
system.ruby.L1Cache_Controller.IS.Data_Exclusive |       53376      2.58%      2.58% |     1673412     80.86%     83.44% |      318533     15.39%     98.83% |       24192      1.17%    100.00%
system.ruby.L1Cache_Controller.IS.Data_Exclusive::total      2069513                      
system.ruby.L1Cache_Controller.IS.DataS_fromL1 |        7970     29.62%     29.62% |        2374      8.82%     38.44% |        7478     27.79%     66.23% |        9087     33.77%    100.00%
system.ruby.L1Cache_Controller.IS.DataS_fromL1::total        26909                      
system.ruby.L1Cache_Controller.IS.Data_all_Acks |       18011     10.03%     10.03% |       85811     47.80%     57.83% |       56462     31.45%     89.28% |       19252     10.72%    100.00%
system.ruby.L1Cache_Controller.IS.Data_all_Acks::total       179536                      
system.ruby.L1Cache_Controller.IM.Data   |          83     10.30%     10.30% |         397     49.26%     59.55% |         242     30.02%     89.58% |          84     10.42%    100.00%
system.ruby.L1Cache_Controller.IM.Data::total          806                      
system.ruby.L1Cache_Controller.IM.Data_all_Acks |       14471      2.44%      2.44% |      489540     82.56%     85.00% |       77460     13.06%     98.06% |       11479      1.94%    100.00%
system.ruby.L1Cache_Controller.IM.Data_all_Acks::total       592950                      
system.ruby.L1Cache_Controller.SM.Inv    |           0      0.00%      0.00% |           0      0.00%      0.00% |           1    100.00%    100.00% |           0      0.00%    100.00%
system.ruby.L1Cache_Controller.SM.Inv::total            1                      
system.ruby.L1Cache_Controller.SM.Ack    |       15301     46.15%     46.15% |        6155     18.57%     64.72% |        5899     17.79%     82.51% |        5797     17.49%    100.00%
system.ruby.L1Cache_Controller.SM.Ack::total        33152                      
system.ruby.L1Cache_Controller.SM.Ack_all |        6633     39.23%     39.23% |        2993     17.70%     56.93% |        3773     22.31%     79.24% |        3510     20.76%    100.00%
system.ruby.L1Cache_Controller.SM.Ack_all::total        16909                      
system.ruby.L1Cache_Controller.M_I.Fwd_GETS |           0      0.00%      0.00% |           0      0.00%      0.00% |           1    100.00%    100.00% |           0      0.00%    100.00%
system.ruby.L1Cache_Controller.M_I.Fwd_GETS::total            1                      
system.ruby.L1Cache_Controller.M_I.WB_Ack |       60248      2.28%      2.28% |     2160379     81.93%     84.21% |      387681     14.70%     98.92% |       28575      1.08%    100.00%
system.ruby.L1Cache_Controller.M_I.WB_Ack::total      2636883                      
system.ruby.L1Cache_Controller.SINK_WB_ACK.WB_Ack |           0      0.00%      0.00% |           0      0.00%      0.00% |           1    100.00%    100.00% |           0      0.00%    100.00%
system.ruby.L1Cache_Controller.SINK_WB_ACK.WB_Ack::total            1                      
system.ruby.L1Cache_Controller.S_IL0.L0_Invalidate_Own |       13658      8.41%      8.41% |       84183     51.82%     60.23% |       51694     31.82%     92.06% |       12904      7.94%    100.00%
system.ruby.L1Cache_Controller.S_IL0.L0_Invalidate_Own::total       162439                      
system.ruby.L1Cache_Controller.S_IL0.L0_Invalidate_Else |       11844     27.41%     27.41% |        2903      6.72%     34.13% |       13437     31.10%     65.23% |       15026     34.77%    100.00%
system.ruby.L1Cache_Controller.S_IL0.L0_Invalidate_Else::total        43210                      
system.ruby.L1Cache_Controller.S_IL0.L0_Ack |       25502     12.40%     12.40% |       87086     42.35%     54.75% |       65131     31.67%     86.42% |       27930     13.58%    100.00%
system.ruby.L1Cache_Controller.S_IL0.L0_Ack::total       205649                      
system.ruby.L1Cache_Controller.E_IL0.L0_DataAck |          73     23.10%     23.10% |          24      7.59%     30.70% |         105     33.23%     63.92% |         114     36.08%    100.00%
system.ruby.L1Cache_Controller.E_IL0.L0_DataAck::total          316                      
system.ruby.L1Cache_Controller.E_IL0.L0_Invalidate_Own |         692      1.78%      1.78% |       35187     90.42%     92.20% |        2979      7.65%     99.85% |          58      0.15%    100.00%
system.ruby.L1Cache_Controller.E_IL0.L0_Invalidate_Own::total        38916                      
system.ruby.L1Cache_Controller.E_IL0.L0_Invalidate_Else |         674     22.19%     22.19% |         263      8.66%     30.84% |        1514     49.84%     80.68% |         587     19.32%    100.00%
system.ruby.L1Cache_Controller.E_IL0.L0_Invalidate_Else::total         3038                      
system.ruby.L1Cache_Controller.E_IL0.L0_Ack |        1293      3.11%      3.11% |       35426     85.08%     88.19% |        4388     10.54%     98.72% |         531      1.28%    100.00%
system.ruby.L1Cache_Controller.E_IL0.L0_Ack::total        41638                      
system.ruby.L1Cache_Controller.M_IL0.WriteBack |           0      0.00%      0.00% |           0      0.00%      0.00% |           1     50.00%     50.00% |           1     50.00%    100.00%
system.ruby.L1Cache_Controller.M_IL0.WriteBack::total            2                      
system.ruby.L1Cache_Controller.M_IL0.L0_DataAck |        2551     30.25%     30.25% |        1016     12.05%     42.29% |        2835     33.61%     75.91% |        2032     24.09%    100.00%
system.ruby.L1Cache_Controller.M_IL0.L0_DataAck::total         8434                      
system.ruby.L1Cache_Controller.M_IL0.L0_Invalidate_Own |         716      4.78%      4.78% |        9826     65.58%     70.36% |        4041     26.97%     97.33% |         400      2.67%    100.00%
system.ruby.L1Cache_Controller.M_IL0.L0_Invalidate_Own::total        14983                      
system.ruby.L1Cache_Controller.M_IL0.L0_Invalidate_Else |        3452     39.95%     39.95% |         573      6.63%     46.59% |        2351     27.21%     73.80% |        2264     26.20%    100.00%
system.ruby.L1Cache_Controller.M_IL0.L0_Invalidate_Else::total         8640                      
system.ruby.L1Cache_Controller.M_IL0.L0_Ack |        1617     10.65%     10.65% |        9383     61.78%     72.43% |        3556     23.41%     95.85% |         631      4.15%    100.00%
system.ruby.L1Cache_Controller.M_IL0.L0_Ack::total        15187                      
system.ruby.L1Cache_Controller.MM_IL0.Fwd_GETX |           0      0.00%      0.00% |           0      0.00%      0.00% |           1    100.00%    100.00% |           0      0.00%    100.00%
system.ruby.L1Cache_Controller.MM_IL0.Fwd_GETX::total            1                      
system.ruby.L1Cache_Controller.MM_IL0.Fwd_GETS |           0      0.00%      0.00% |           0      0.00%      0.00% |           0      0.00%      0.00% |           1    100.00%    100.00%
system.ruby.L1Cache_Controller.MM_IL0.Fwd_GETS::total            1                      
system.ruby.L1Cache_Controller.MM_IL0.L0_Ack |           0      0.00%      0.00% |           0      0.00%      0.00% |           1     50.00%     50.00% |           1     50.00%    100.00%
system.ruby.L1Cache_Controller.MM_IL0.L0_Ack::total            2                      
system.ruby.L2Cache_Controller.L1_GETS        2276028      0.00%      0.00%
system.ruby.L2Cache_Controller.L1_GETX         593758      0.00%      0.00%
system.ruby.L2Cache_Controller.L1_UPGRADE        16104      0.00%      0.00%
system.ruby.L2Cache_Controller.L1_PUTX        2636885      0.00%      0.00%
system.ruby.L2Cache_Controller.L2_Replacement       833496      0.00%      0.00%
system.ruby.L2Cache_Controller.L2_Replacement_clean       639427      0.00%      0.00%
system.ruby.L2Cache_Controller.Mem_Data       1474459      0.00%      0.00%
system.ruby.L2Cache_Controller.Mem_Ack        1473169      0.00%      0.00%
system.ruby.L2Cache_Controller.WB_Data          22713      0.00%      0.00%
system.ruby.L2Cache_Controller.WB_Data_clean        16734      0.00%      0.00%
system.ruby.L2Cache_Controller.Ack              20133      0.00%      0.00%
system.ruby.L2Cache_Controller.Ack_all          10271      0.00%      0.00%
system.ruby.L2Cache_Controller.Unblock          26909      0.00%      0.00%
system.ruby.L2Cache_Controller.Exclusive_Unblock      2679372      0.00%      0.00%
system.ruby.L2Cache_Controller.MEM_Inv            492      0.00%      0.00%
system.ruby.L2Cache_Controller.NP.L1_GETS       965772      0.00%      0.00%
system.ruby.L2Cache_Controller.NP.L1_GETX       508687      0.00%      0.00%
system.ruby.L2Cache_Controller.SS.L1_GETS       179536      0.00%      0.00%
system.ruby.L2Cache_Controller.SS.L1_GETX          806      0.00%      0.00%
system.ruby.L2Cache_Controller.SS.L1_UPGRADE        16103      0.00%      0.00%
system.ruby.L2Cache_Controller.SS.L1_PUTX            1      0.00%      0.00%
system.ruby.L2Cache_Controller.SS.L2_Replacement          722      0.00%      0.00%
system.ruby.L2Cache_Controller.SS.L2_Replacement_clean         8717      0.00%      0.00%
system.ruby.L2Cache_Controller.M.L1_GETS      1103741      0.00%      0.00%
system.ruby.L2Cache_Controller.M.L1_GETX        82071      0.00%      0.00%
system.ruby.L2Cache_Controller.M.L2_Replacement       831230      0.00%      0.00%
system.ruby.L2Cache_Controller.M.L2_Replacement_clean       618947      0.00%      0.00%
system.ruby.L2Cache_Controller.M.MEM_Inv          183      0.00%      0.00%
system.ruby.L2Cache_Controller.MT.L1_GETS        26909      0.00%      0.00%
system.ruby.L2Cache_Controller.MT.L1_GETX         2192      0.00%      0.00%
system.ruby.L2Cache_Controller.MT.L1_PUTX      2636883      0.00%      0.00%
system.ruby.L2Cache_Controller.MT.L2_Replacement         1544      0.00%      0.00%
system.ruby.L2Cache_Controller.MT.L2_Replacement_clean        11763      0.00%      0.00%
system.ruby.L2Cache_Controller.MT.MEM_Inv           63      0.00%      0.00%
system.ruby.L2Cache_Controller.M_I.L1_GETS            1      0.00%      0.00%
system.ruby.L2Cache_Controller.M_I.Mem_Ack      1473169      0.00%      0.00%
system.ruby.L2Cache_Controller.M_I.MEM_Inv          183      0.00%      0.00%
system.ruby.L2Cache_Controller.MT_I.WB_Data         1336      0.00%      0.00%
system.ruby.L2Cache_Controller.MT_I.WB_Data_clean          260      0.00%      0.00%
system.ruby.L2Cache_Controller.MT_I.Ack_all           11      0.00%      0.00%
system.ruby.L2Cache_Controller.MT_I.MEM_Inv           63      0.00%      0.00%
system.ruby.L2Cache_Controller.MCT_I.WB_Data         6013      0.00%      0.00%
system.ruby.L2Cache_Controller.MCT_I.WB_Data_clean         4929      0.00%      0.00%
system.ruby.L2Cache_Controller.MCT_I.Ack_all          821      0.00%      0.00%
system.ruby.L2Cache_Controller.I_I.Ack          19164      0.00%      0.00%
system.ruby.L2Cache_Controller.I_I.Ack_all         8717      0.00%      0.00%
system.ruby.L2Cache_Controller.S_I.Ack            969      0.00%      0.00%
system.ruby.L2Cache_Controller.S_I.Ack_all          722      0.00%      0.00%
system.ruby.L2Cache_Controller.ISS.Mem_Data       965772      0.00%      0.00%
system.ruby.L2Cache_Controller.IM.Mem_Data       508687      0.00%      0.00%
system.ruby.L2Cache_Controller.SS_MB.L1_GETS           51      0.00%      0.00%
system.ruby.L2Cache_Controller.SS_MB.L1_UPGRADE            1      0.00%      0.00%
system.ruby.L2Cache_Controller.SS_MB.Exclusive_Unblock        16909      0.00%      0.00%
system.ruby.L2Cache_Controller.MT_MB.L1_GETS           14      0.00%      0.00%
system.ruby.L2Cache_Controller.MT_MB.L1_GETX            1      0.00%      0.00%
system.ruby.L2Cache_Controller.MT_MB.Exclusive_Unblock      2662463      0.00%      0.00%
system.ruby.L2Cache_Controller.MT_IIB.L1_GETS            4      0.00%      0.00%
system.ruby.L2Cache_Controller.MT_IIB.L1_GETX            1      0.00%      0.00%
system.ruby.L2Cache_Controller.MT_IIB.L1_PUTX            1      0.00%      0.00%
system.ruby.L2Cache_Controller.MT_IIB.WB_Data        15351      0.00%      0.00%
system.ruby.L2Cache_Controller.MT_IIB.WB_Data_clean        11523      0.00%      0.00%
system.ruby.L2Cache_Controller.MT_IIB.Unblock           35      0.00%      0.00%
system.ruby.L2Cache_Controller.MT_IB.WB_Data           13      0.00%      0.00%
system.ruby.L2Cache_Controller.MT_IB.WB_Data_clean           22      0.00%      0.00%
system.ruby.L2Cache_Controller.MT_SB.Unblock        26874      0.00%      0.00%

---------- End Simulation Statistics   ----------
