
---------- Begin Simulation Statistics ----------
sim_seconds                                  1.719941                       # Number of seconds simulated
sim_ticks                                1719940654000                       # Number of ticks simulated
final_tick                               53948512048501                       # Number of ticks from beginning of simulation (restored from checkpoints and never reset)
sim_freq                                 1000000000000                       # Frequency of simulated ticks
host_inst_rate                                 114366                       # Simulator instruction rate (inst/s)
host_op_rate                                   170404                       # Simulator op (including micro ops) rate (op/s)
host_tick_rate                              271371560                       # Simulator tick rate (ticks/s)
host_mem_usage                                2487356                       # Number of bytes of host memory used
host_seconds                                  6337.95                       # Real time elapsed on the host
sim_insts                                   724844573                       # Number of instructions simulated
sim_ops                                    1080012890                       # Number of ops (including micro ops) simulated
system.voltage_domain.voltage                       1                       # Voltage in Volts
system.clk_domain.clock                          1000                       # Clock period in ticks
system.mem_ctrls.bytes_read::ruby.dir_cntrl0    376019264                       # Number of bytes read from this memory
system.mem_ctrls.bytes_read::total          376019264                       # Number of bytes read from this memory
system.mem_ctrls.bytes_written::ruby.dir_cntrl0    170595392                       # Number of bytes written to this memory
system.mem_ctrls.bytes_written::total       170595392                       # Number of bytes written to this memory
system.mem_ctrls.num_reads::ruby.dir_cntrl0      5875301                       # Number of read requests responded to by this memory
system.mem_ctrls.num_reads::total             5875301                       # Number of read requests responded to by this memory
system.mem_ctrls.num_writes::ruby.dir_cntrl0      2665553                       # Number of write requests responded to by this memory
system.mem_ctrls.num_writes::total            2665553                       # Number of write requests responded to by this memory
system.mem_ctrls.bw_read::ruby.dir_cntrl0    218623394                       # Total read bandwidth from this memory (bytes/s)
system.mem_ctrls.bw_read::total             218623394                       # Total read bandwidth from this memory (bytes/s)
system.mem_ctrls.bw_write::ruby.dir_cntrl0     99186790                       # Write bandwidth from this memory (bytes/s)
system.mem_ctrls.bw_write::total             99186790                       # Write bandwidth from this memory (bytes/s)
system.mem_ctrls.bw_total::ruby.dir_cntrl0    317810184                       # Total bandwidth to/from this memory (bytes/s)
system.mem_ctrls.bw_total::total            317810184                       # Total bandwidth to/from this memory (bytes/s)
system.mem_ctrls.readReqs                     5875301                       # Number of read requests accepted
system.mem_ctrls.writeReqs                    2665553                       # Number of write requests accepted
system.mem_ctrls.readBursts                   5875301                       # Number of DRAM read bursts, including those serviced by the write queue
system.mem_ctrls.writeBursts                  2665553                       # Number of DRAM write bursts, including those merged in the write queue
system.mem_ctrls.bytesReadDRAM              375964160                       # Total number of bytes read from DRAM
system.mem_ctrls.bytesReadWrQ                   55104                       # Total number of bytes read from write queue
system.mem_ctrls.bytesWritten               170588160                       # Total number of bytes written to DRAM
system.mem_ctrls.bytesReadSys               376019264                       # Total read bytes from the system interface side
system.mem_ctrls.bytesWrittenSys            170595392                       # Total written bytes from the system interface side
system.mem_ctrls.servicedByWrQ                    861                       # Number of DRAM read bursts serviced by the write queue
system.mem_ctrls.mergedWrBursts                   102                       # Number of DRAM write bursts merged with an existing one
system.mem_ctrls.neitherReadNorWriteReqs            0                       # Number of requests that are neither read nor write
system.mem_ctrls.perBankRdBursts::0            367509                       # Per bank write bursts
system.mem_ctrls.perBankRdBursts::1            366894                       # Per bank write bursts
system.mem_ctrls.perBankRdBursts::2            367155                       # Per bank write bursts
system.mem_ctrls.perBankRdBursts::3            367003                       # Per bank write bursts
system.mem_ctrls.perBankRdBursts::4            367038                       # Per bank write bursts
system.mem_ctrls.perBankRdBursts::5            365972                       # Per bank write bursts
system.mem_ctrls.perBankRdBursts::6            366219                       # Per bank write bursts
system.mem_ctrls.perBankRdBursts::7            366884                       # Per bank write bursts
system.mem_ctrls.perBankRdBursts::8            367223                       # Per bank write bursts
system.mem_ctrls.perBankRdBursts::9            367629                       # Per bank write bursts
system.mem_ctrls.perBankRdBursts::10           368440                       # Per bank write bursts
system.mem_ctrls.perBankRdBursts::11           365173                       # Per bank write bursts
system.mem_ctrls.perBankRdBursts::12           367390                       # Per bank write bursts
system.mem_ctrls.perBankRdBursts::13           366420                       # Per bank write bursts
system.mem_ctrls.perBankRdBursts::14           369638                       # Per bank write bursts
system.mem_ctrls.perBankRdBursts::15           367853                       # Per bank write bursts
system.mem_ctrls.perBankWrBursts::0            167017                       # Per bank write bursts
system.mem_ctrls.perBankWrBursts::1            166970                       # Per bank write bursts
system.mem_ctrls.perBankWrBursts::2            166842                       # Per bank write bursts
system.mem_ctrls.perBankWrBursts::3            166583                       # Per bank write bursts
system.mem_ctrls.perBankWrBursts::4            166104                       # Per bank write bursts
system.mem_ctrls.perBankWrBursts::5            165812                       # Per bank write bursts
system.mem_ctrls.perBankWrBursts::6            165856                       # Per bank write bursts
system.mem_ctrls.perBankWrBursts::7            166409                       # Per bank write bursts
system.mem_ctrls.perBankWrBursts::8            166719                       # Per bank write bursts
system.mem_ctrls.perBankWrBursts::9            167000                       # Per bank write bursts
system.mem_ctrls.perBankWrBursts::10           167116                       # Per bank write bursts
system.mem_ctrls.perBankWrBursts::11           165608                       # Per bank write bursts
system.mem_ctrls.perBankWrBursts::12           166731                       # Per bank write bursts
system.mem_ctrls.perBankWrBursts::13           166120                       # Per bank write bursts
system.mem_ctrls.perBankWrBursts::14           167815                       # Per bank write bursts
system.mem_ctrls.perBankWrBursts::15           166738                       # Per bank write bursts
system.mem_ctrls.numRdRetry                         0                       # Number of times read queue was full causing retry
system.mem_ctrls.numWrRetry                         0                       # Number of times write queue was full causing retry
system.mem_ctrls.totGap                  1719940850000                       # Total gap between requests
system.mem_ctrls.readPktSize::0                     0                       # Read request sizes (log2)
system.mem_ctrls.readPktSize::1                     0                       # Read request sizes (log2)
system.mem_ctrls.readPktSize::2                     0                       # Read request sizes (log2)
system.mem_ctrls.readPktSize::3                     0                       # Read request sizes (log2)
system.mem_ctrls.readPktSize::4                     0                       # Read request sizes (log2)
system.mem_ctrls.readPktSize::5                     0                       # Read request sizes (log2)
system.mem_ctrls.readPktSize::6               5875301                       # Read request sizes (log2)
system.mem_ctrls.writePktSize::0                    0                       # Write request sizes (log2)
system.mem_ctrls.writePktSize::1                    0                       # Write request sizes (log2)
system.mem_ctrls.writePktSize::2                    0                       # Write request sizes (log2)
system.mem_ctrls.writePktSize::3                    0                       # Write request sizes (log2)
system.mem_ctrls.writePktSize::4                    0                       # Write request sizes (log2)
system.mem_ctrls.writePktSize::5                    0                       # Write request sizes (log2)
system.mem_ctrls.writePktSize::6              2665553                       # Write request sizes (log2)
system.mem_ctrls.rdQLenPdf::0                 5873069                       # What read queue length does an incoming req see
system.mem_ctrls.rdQLenPdf::1                    1365                       # What read queue length does an incoming req see
system.mem_ctrls.rdQLenPdf::2                       6                       # What read queue length does an incoming req see
system.mem_ctrls.rdQLenPdf::3                       0                       # What read queue length does an incoming req see
system.mem_ctrls.rdQLenPdf::4                       0                       # What read queue length does an incoming req see
system.mem_ctrls.rdQLenPdf::5                       0                       # What read queue length does an incoming req see
system.mem_ctrls.rdQLenPdf::6                       0                       # What read queue length does an incoming req see
system.mem_ctrls.rdQLenPdf::7                       0                       # What read queue length does an incoming req see
system.mem_ctrls.rdQLenPdf::8                       0                       # What read queue length does an incoming req see
system.mem_ctrls.rdQLenPdf::9                       0                       # What read queue length does an incoming req see
system.mem_ctrls.rdQLenPdf::10                      0                       # What read queue length does an incoming req see
system.mem_ctrls.rdQLenPdf::11                      0                       # What read queue length does an incoming req see
system.mem_ctrls.rdQLenPdf::12                      0                       # What read queue length does an incoming req see
system.mem_ctrls.rdQLenPdf::13                      0                       # What read queue length does an incoming req see
system.mem_ctrls.rdQLenPdf::14                      0                       # What read queue length does an incoming req see
system.mem_ctrls.rdQLenPdf::15                      0                       # What read queue length does an incoming req see
system.mem_ctrls.rdQLenPdf::16                      0                       # What read queue length does an incoming req see
system.mem_ctrls.rdQLenPdf::17                      0                       # What read queue length does an incoming req see
system.mem_ctrls.rdQLenPdf::18                      0                       # What read queue length does an incoming req see
system.mem_ctrls.rdQLenPdf::19                      0                       # What read queue length does an incoming req see
system.mem_ctrls.rdQLenPdf::20                      0                       # What read queue length does an incoming req see
system.mem_ctrls.rdQLenPdf::21                      0                       # What read queue length does an incoming req see
system.mem_ctrls.rdQLenPdf::22                      0                       # What read queue length does an incoming req see
system.mem_ctrls.rdQLenPdf::23                      0                       # What read queue length does an incoming req see
system.mem_ctrls.rdQLenPdf::24                      0                       # What read queue length does an incoming req see
system.mem_ctrls.rdQLenPdf::25                      0                       # What read queue length does an incoming req see
system.mem_ctrls.rdQLenPdf::26                      0                       # What read queue length does an incoming req see
system.mem_ctrls.rdQLenPdf::27                      0                       # What read queue length does an incoming req see
system.mem_ctrls.rdQLenPdf::28                      0                       # What read queue length does an incoming req see
system.mem_ctrls.rdQLenPdf::29                      0                       # What read queue length does an incoming req see
system.mem_ctrls.rdQLenPdf::30                      0                       # What read queue length does an incoming req see
system.mem_ctrls.rdQLenPdf::31                      0                       # What read queue length does an incoming req see
system.mem_ctrls.wrQLenPdf::0                       0                       # What write queue length does an incoming req see
system.mem_ctrls.wrQLenPdf::1                       0                       # What write queue length does an incoming req see
system.mem_ctrls.wrQLenPdf::2                       0                       # What write queue length does an incoming req see
system.mem_ctrls.wrQLenPdf::3                       0                       # What write queue length does an incoming req see
system.mem_ctrls.wrQLenPdf::4                       0                       # What write queue length does an incoming req see
system.mem_ctrls.wrQLenPdf::5                       0                       # What write queue length does an incoming req see
system.mem_ctrls.wrQLenPdf::6                       0                       # What write queue length does an incoming req see
system.mem_ctrls.wrQLenPdf::7                       1                       # What write queue length does an incoming req see
system.mem_ctrls.wrQLenPdf::8                       1                       # What write queue length does an incoming req see
system.mem_ctrls.wrQLenPdf::9                       1                       # What write queue length does an incoming req see
system.mem_ctrls.wrQLenPdf::10                      1                       # What write queue length does an incoming req see
system.mem_ctrls.wrQLenPdf::11                      1                       # What write queue length does an incoming req see
system.mem_ctrls.wrQLenPdf::12                      1                       # What write queue length does an incoming req see
system.mem_ctrls.wrQLenPdf::13                      1                       # What write queue length does an incoming req see
system.mem_ctrls.wrQLenPdf::14                      1                       # What write queue length does an incoming req see
system.mem_ctrls.wrQLenPdf::15                  58980                       # What write queue length does an incoming req see
system.mem_ctrls.wrQLenPdf::16                  73477                       # What write queue length does an incoming req see
system.mem_ctrls.wrQLenPdf::17                 133278                       # What write queue length does an incoming req see
system.mem_ctrls.wrQLenPdf::18                 159006                       # What write queue length does an incoming req see
system.mem_ctrls.wrQLenPdf::19                 160831                       # What write queue length does an incoming req see
system.mem_ctrls.wrQLenPdf::20                 160959                       # What write queue length does an incoming req see
system.mem_ctrls.wrQLenPdf::21                 160794                       # What write queue length does an incoming req see
system.mem_ctrls.wrQLenPdf::22                 160806                       # What write queue length does an incoming req see
system.mem_ctrls.wrQLenPdf::23                 160821                       # What write queue length does an incoming req see
system.mem_ctrls.wrQLenPdf::24                 161358                       # What write queue length does an incoming req see
system.mem_ctrls.wrQLenPdf::25                 161573                       # What write queue length does an incoming req see
system.mem_ctrls.wrQLenPdf::26                 161528                       # What write queue length does an incoming req see
system.mem_ctrls.wrQLenPdf::27                 159780                       # What write queue length does an incoming req see
system.mem_ctrls.wrQLenPdf::28                 159490                       # What write queue length does an incoming req see
system.mem_ctrls.wrQLenPdf::29                 159198                       # What write queue length does an incoming req see
system.mem_ctrls.wrQLenPdf::30                 157886                       # What write queue length does an incoming req see
system.mem_ctrls.wrQLenPdf::31                 157412                       # What write queue length does an incoming req see
system.mem_ctrls.wrQLenPdf::32                 157337                       # What write queue length does an incoming req see
system.mem_ctrls.wrQLenPdf::33                    684                       # What write queue length does an incoming req see
system.mem_ctrls.wrQLenPdf::34                    155                       # What write queue length does an incoming req see
system.mem_ctrls.wrQLenPdf::35                     52                       # What write queue length does an incoming req see
system.mem_ctrls.wrQLenPdf::36                     17                       # What write queue length does an incoming req see
system.mem_ctrls.wrQLenPdf::37                      9                       # What write queue length does an incoming req see
system.mem_ctrls.wrQLenPdf::38                      8                       # What write queue length does an incoming req see
system.mem_ctrls.wrQLenPdf::39                      3                       # What write queue length does an incoming req see
system.mem_ctrls.wrQLenPdf::40                      1                       # What write queue length does an incoming req see
system.mem_ctrls.wrQLenPdf::41                      0                       # What write queue length does an incoming req see
system.mem_ctrls.wrQLenPdf::42                      0                       # What write queue length does an incoming req see
system.mem_ctrls.wrQLenPdf::43                      0                       # What write queue length does an incoming req see
system.mem_ctrls.wrQLenPdf::44                      0                       # What write queue length does an incoming req see
system.mem_ctrls.wrQLenPdf::45                      0                       # What write queue length does an incoming req see
system.mem_ctrls.wrQLenPdf::46                      0                       # What write queue length does an incoming req see
system.mem_ctrls.wrQLenPdf::47                      0                       # What write queue length does an incoming req see
system.mem_ctrls.wrQLenPdf::48                      0                       # What write queue length does an incoming req see
system.mem_ctrls.wrQLenPdf::49                      0                       # What write queue length does an incoming req see
system.mem_ctrls.wrQLenPdf::50                      0                       # What write queue length does an incoming req see
system.mem_ctrls.wrQLenPdf::51                      0                       # What write queue length does an incoming req see
system.mem_ctrls.wrQLenPdf::52                      0                       # What write queue length does an incoming req see
system.mem_ctrls.wrQLenPdf::53                      0                       # What write queue length does an incoming req see
system.mem_ctrls.wrQLenPdf::54                      0                       # What write queue length does an incoming req see
system.mem_ctrls.wrQLenPdf::55                      0                       # What write queue length does an incoming req see
system.mem_ctrls.wrQLenPdf::56                      0                       # What write queue length does an incoming req see
system.mem_ctrls.wrQLenPdf::57                      0                       # What write queue length does an incoming req see
system.mem_ctrls.wrQLenPdf::58                      0                       # What write queue length does an incoming req see
system.mem_ctrls.wrQLenPdf::59                      0                       # What write queue length does an incoming req see
system.mem_ctrls.wrQLenPdf::60                      0                       # What write queue length does an incoming req see
system.mem_ctrls.wrQLenPdf::61                      0                       # What write queue length does an incoming req see
system.mem_ctrls.wrQLenPdf::62                      0                       # What write queue length does an incoming req see
system.mem_ctrls.wrQLenPdf::63                      0                       # What write queue length does an incoming req see
system.mem_ctrls.bytesPerActivate::samples      3778887                       # Bytes accessed per row activation
system.mem_ctrls.bytesPerActivate::mean    144.633164                       # Bytes accessed per row activation
system.mem_ctrls.bytesPerActivate::gmean    88.741784                       # Bytes accessed per row activation
system.mem_ctrls.bytesPerActivate::stdev   226.043609                       # Bytes accessed per row activation
system.mem_ctrls.bytesPerActivate::0-127      3076986     81.43%     81.43% # Bytes accessed per row activation
system.mem_ctrls.bytesPerActivate::128-255       239767      6.34%     87.77% # Bytes accessed per row activation
system.mem_ctrls.bytesPerActivate::256-383        92573      2.45%     90.22% # Bytes accessed per row activation
system.mem_ctrls.bytesPerActivate::384-511        65061      1.72%     91.94% # Bytes accessed per row activation
system.mem_ctrls.bytesPerActivate::512-639        57915      1.53%     93.47% # Bytes accessed per row activation
system.mem_ctrls.bytesPerActivate::640-767        37540      0.99%     94.47% # Bytes accessed per row activation
system.mem_ctrls.bytesPerActivate::768-895        31399      0.83%     95.30% # Bytes accessed per row activation
system.mem_ctrls.bytesPerActivate::896-1023        28334      0.75%     96.05% # Bytes accessed per row activation
system.mem_ctrls.bytesPerActivate::1024-1151       149312      3.95%    100.00% # Bytes accessed per row activation
system.mem_ctrls.bytesPerActivate::total      3778887                       # Bytes accessed per row activation
system.mem_ctrls.rdPerTurnAround::samples       157306                       # Reads before turning the bus around for writes
system.mem_ctrls.rdPerTurnAround::mean      37.448813                       # Reads before turning the bus around for writes
system.mem_ctrls.rdPerTurnAround::stdev   1648.213173                       # Reads before turning the bus around for writes
system.mem_ctrls.rdPerTurnAround::0-16383       157297     99.99%     99.99% # Reads before turning the bus around for writes
system.mem_ctrls.rdPerTurnAround::16384-32767            1      0.00%     99.99% # Reads before turning the bus around for writes
system.mem_ctrls.rdPerTurnAround::32768-49151            1      0.00%    100.00% # Reads before turning the bus around for writes
system.mem_ctrls.rdPerTurnAround::65536-81919            1      0.00%    100.00% # Reads before turning the bus around for writes
system.mem_ctrls.rdPerTurnAround::81920-98303            1      0.00%    100.00% # Reads before turning the bus around for writes
system.mem_ctrls.rdPerTurnAround::98304-114687            2      0.00%    100.00% # Reads before turning the bus around for writes
system.mem_ctrls.rdPerTurnAround::114688-131071            1      0.00%    100.00% # Reads before turning the bus around for writes
system.mem_ctrls.rdPerTurnAround::360448-376831            1      0.00%    100.00% # Reads before turning the bus around for writes
system.mem_ctrls.rdPerTurnAround::475136-491519            1      0.00%    100.00% # Reads before turning the bus around for writes
system.mem_ctrls.rdPerTurnAround::total        157306                       # Reads before turning the bus around for writes
system.mem_ctrls.wrPerTurnAround::samples       157306                       # Writes before turning the bus around for reads
system.mem_ctrls.wrPerTurnAround::mean      16.944300                       # Writes before turning the bus around for reads
system.mem_ctrls.wrPerTurnAround::gmean     16.908414                       # Writes before turning the bus around for reads
system.mem_ctrls.wrPerTurnAround::stdev      1.121737                       # Writes before turning the bus around for reads
system.mem_ctrls.wrPerTurnAround::16            84117     53.47%     53.47% # Writes before turning the bus around for reads
system.mem_ctrls.wrPerTurnAround::17            11634      7.40%     60.87% # Writes before turning the bus around for reads
system.mem_ctrls.wrPerTurnAround::18            51398     32.67%     93.54% # Writes before turning the bus around for reads
system.mem_ctrls.wrPerTurnAround::19             7618      4.84%     98.39% # Writes before turning the bus around for reads
system.mem_ctrls.wrPerTurnAround::20             1840      1.17%     99.56% # Writes before turning the bus around for reads
system.mem_ctrls.wrPerTurnAround::21              478      0.30%     99.86% # Writes before turning the bus around for reads
system.mem_ctrls.wrPerTurnAround::22              145      0.09%     99.95% # Writes before turning the bus around for reads
system.mem_ctrls.wrPerTurnAround::23               42      0.03%     99.98% # Writes before turning the bus around for reads
system.mem_ctrls.wrPerTurnAround::24                9      0.01%     99.98% # Writes before turning the bus around for reads
system.mem_ctrls.wrPerTurnAround::25                7      0.00%     99.99% # Writes before turning the bus around for reads
system.mem_ctrls.wrPerTurnAround::26                9      0.01%     99.99% # Writes before turning the bus around for reads
system.mem_ctrls.wrPerTurnAround::27                4      0.00%    100.00% # Writes before turning the bus around for reads
system.mem_ctrls.wrPerTurnAround::29                2      0.00%    100.00% # Writes before turning the bus around for reads
system.mem_ctrls.wrPerTurnAround::30                1      0.00%    100.00% # Writes before turning the bus around for reads
system.mem_ctrls.wrPerTurnAround::33                1      0.00%    100.00% # Writes before turning the bus around for reads
system.mem_ctrls.wrPerTurnAround::36                1      0.00%    100.00% # Writes before turning the bus around for reads
system.mem_ctrls.wrPerTurnAround::total        157306                       # Writes before turning the bus around for reads
system.mem_ctrls.totQLat                  74938382249                       # Total ticks spent queuing
system.mem_ctrls.totMemAccLat            185084132249                       # Total ticks spent from burst creation until serviced by the DRAM
system.mem_ctrls.totBusLat                29372200000                       # Total ticks spent in databus transfers
system.mem_ctrls.avgQLat                     12756.69                       # Average queueing delay per DRAM burst
system.mem_ctrls.avgBusLat                    5000.00                       # Average bus latency per DRAM burst
system.mem_ctrls.avgMemAccLat                31506.69                       # Average memory access latency per DRAM burst
system.mem_ctrls.avgRdBW                       218.59                       # Average DRAM read bandwidth in MiByte/s
system.mem_ctrls.avgWrBW                        99.18                       # Average achieved write bandwidth in MiByte/s
system.mem_ctrls.avgRdBWSys                    218.62                       # Average system read bandwidth in MiByte/s
system.mem_ctrls.avgWrBWSys                     99.19                       # Average system write bandwidth in MiByte/s
system.mem_ctrls.peakBW                      12800.00                       # Theoretical peak bandwidth in MiByte/s
system.mem_ctrls.busUtil                         2.48                       # Data bus utilization in percentage
system.mem_ctrls.busUtilRead                     1.71                       # Data bus utilization in percentage for reads
system.mem_ctrls.busUtilWrite                    0.77                       # Data bus utilization in percentage for writes
system.mem_ctrls.avgRdQLen                       1.00                       # Average read queue length when enqueuing
system.mem_ctrls.avgWrQLen                      24.82                       # Average write queue length when enqueuing
system.mem_ctrls.readRowHits                  3772937                       # Number of row buffer hits during reads
system.mem_ctrls.writeRowHits                  988054                       # Number of row buffer hits during writes
system.mem_ctrls.readRowHitRate                 64.23                       # Row buffer hit rate for reads
system.mem_ctrls.writeRowHitRate                37.07                       # Row buffer hit rate for writes
system.mem_ctrls.avgGap                     201378.09                       # Average gap between requests
system.mem_ctrls.pageHitRate                    55.75                       # Row buffer hit rate, read and write combined
system.mem_ctrls_0.actEnergy              14276666880                       # Energy for activate commands per rank (pJ)
system.mem_ctrls_0.preEnergy               7789848000                       # Energy for precharge commands per rank (pJ)
system.mem_ctrls_0.readEnergy             22954191000                       # Energy for read commands per rank (pJ)
system.mem_ctrls_0.writeEnergy             8628670800                       # Energy for write commands per rank (pJ)
system.mem_ctrls_0.refreshEnergy         112562636160                       # Energy for refresh commands per rank (pJ)
system.mem_ctrls_0.actBackEnergy         563675547330                       # Energy for active background per rank (pJ)
system.mem_ctrls_0.preBackEnergy         539574379500                       # Energy for precharge background per rank (pJ)
system.mem_ctrls_0.totalEnergy           1269461939670                       # Total energy per rank (pJ)
system.mem_ctrls_0.averagePower            736.612727                       # Core power per rank (mW)
system.mem_ctrls_0.memoryStateTime::IDLE 892136311250                       # Time in different power states
system.mem_ctrls_0.memoryStateTime::REF   57432700000                       # Time in different power states
system.mem_ctrls_0.memoryStateTime::PRE_PDN            0                       # Time in different power states
system.mem_ctrls_0.memoryStateTime::ACT  770374684750                       # Time in different power states
system.mem_ctrls_0.memoryStateTime::ACT_PDN            0                       # Time in different power states
system.mem_ctrls_1.actEnergy              14323501080                       # Energy for activate commands per rank (pJ)
system.mem_ctrls_1.preEnergy               7815402375                       # Energy for precharge commands per rank (pJ)
system.mem_ctrls_1.readEnergy             22995000600                       # Energy for read commands per rank (pJ)
system.mem_ctrls_1.writeEnergy             8643263760                       # Energy for write commands per rank (pJ)
system.mem_ctrls_1.refreshEnergy         112562636160                       # Energy for refresh commands per rank (pJ)
system.mem_ctrls_1.actBackEnergy         565561655100                       # Energy for active background per rank (pJ)
system.mem_ctrls_1.preBackEnergy         537919899000                       # Energy for precharge background per rank (pJ)
system.mem_ctrls_1.totalEnergy           1269821358075                       # Total energy per rank (pJ)
system.mem_ctrls_1.averagePower            736.821282                       # Core power per rank (mW)
system.mem_ctrls_1.memoryStateTime::IDLE 889408362750                       # Time in different power states
system.mem_ctrls_1.memoryStateTime::REF   57432700000                       # Time in different power states
system.mem_ctrls_1.memoryStateTime::PRE_PDN            0                       # Time in different power states
system.mem_ctrls_1.memoryStateTime::ACT  773102801750                       # Time in different power states
system.mem_ctrls_1.memoryStateTime::ACT_PDN            0                       # Time in different power states
system.cpu_voltage_domain.voltage                   1                       # Voltage in Volts
system.cpu_clk_domain.clock                       500                       # Clock period in ticks
system.cpu0.apic_clk_domain.clock                8000                       # Clock period in ticks
system.cpu0.numCycles                      3436732567                       # number of cpu cycles simulated
system.cpu0.numWorkItemsStarted                     0                       # number of work items this cpu started
system.cpu0.numWorkItemsCompleted                   0                       # number of work items this cpu completed
system.cpu0.kern.inst.arm                           0                       # number of arm instructions executed
system.cpu0.kern.inst.quiesce                       0                       # number of quiesce instructions executed
system.cpu0.committedInsts                    1363697                       # Number of instructions committed
system.cpu0.committedOps                      2976701                       # Number of ops (including micro ops) committed
system.cpu0.num_int_alu_accesses              2912657                       # Number of integer alu accesses
system.cpu0.num_fp_alu_accesses                     0                       # Number of float alu accesses
system.cpu0.num_func_calls                      88320                       # number of times a function call or return occured
system.cpu0.num_conditional_control_insts       195703                       # number of instructions that are conditional controls
system.cpu0.num_int_insts                     2912657                       # number of integer instructions
system.cpu0.num_fp_insts                            0                       # number of float instructions
system.cpu0.num_int_register_reads            5918955                       # number of times the integer registers were read
system.cpu0.num_int_register_writes           2413350                       # number of times the integer registers were written
system.cpu0.num_fp_register_reads                   0                       # number of times the floating registers were read
system.cpu0.num_fp_register_writes                  0                       # number of times the floating registers were written
system.cpu0.num_cc_register_reads             1637115                       # number of times the CC registers were read
system.cpu0.num_cc_register_writes             888895                       # number of times the CC registers were written
system.cpu0.num_mem_refs                       702894                       # number of memory refs
system.cpu0.num_load_insts                     433918                       # Number of load instructions
system.cpu0.num_store_insts                    268976                       # Number of store instructions
system.cpu0.num_idle_cycles              3430747678.366502                       # Number of idle cycles
system.cpu0.num_busy_cycles              5984888.633498                       # Number of busy cycles
system.cpu0.not_idle_fraction                0.001741                       # Percentage of non-idle cycles
system.cpu0.idle_fraction                    0.998259                       # Percentage of idle cycles
system.cpu0.Branches                           310821                       # Number of branches fetched
system.cpu0.op_class::No_OpClass                51432      1.73%      1.73% # Class of executed instruction
system.cpu0.op_class::IntAlu                  2199610     73.89%     75.62% # Class of executed instruction
system.cpu0.op_class::IntMult                    5611      0.19%     75.81% # Class of executed instruction
system.cpu0.op_class::IntDiv                    17157      0.58%     76.39% # Class of executed instruction
system.cpu0.op_class::FloatAdd                      0      0.00%     76.39% # Class of executed instruction
system.cpu0.op_class::FloatCmp                      0      0.00%     76.39% # Class of executed instruction
system.cpu0.op_class::FloatCvt                      0      0.00%     76.39% # Class of executed instruction
system.cpu0.op_class::FloatMult                     0      0.00%     76.39% # Class of executed instruction
system.cpu0.op_class::FloatDiv                      0      0.00%     76.39% # Class of executed instruction
system.cpu0.op_class::FloatSqrt                     0      0.00%     76.39% # Class of executed instruction
system.cpu0.op_class::SimdAdd                       0      0.00%     76.39% # Class of executed instruction
system.cpu0.op_class::SimdAddAcc                    0      0.00%     76.39% # Class of executed instruction
system.cpu0.op_class::SimdAlu                       0      0.00%     76.39% # Class of executed instruction
system.cpu0.op_class::SimdCmp                       0      0.00%     76.39% # Class of executed instruction
system.cpu0.op_class::SimdCvt                       0      0.00%     76.39% # Class of executed instruction
system.cpu0.op_class::SimdMisc                      0      0.00%     76.39% # Class of executed instruction
system.cpu0.op_class::SimdMult                      0      0.00%     76.39% # Class of executed instruction
system.cpu0.op_class::SimdMultAcc                   0      0.00%     76.39% # Class of executed instruction
system.cpu0.op_class::SimdShift                     0      0.00%     76.39% # Class of executed instruction
system.cpu0.op_class::SimdShiftAcc                  0      0.00%     76.39% # Class of executed instruction
system.cpu0.op_class::SimdSqrt                      0      0.00%     76.39% # Class of executed instruction
system.cpu0.op_class::SimdFloatAdd                  0      0.00%     76.39% # Class of executed instruction
system.cpu0.op_class::SimdFloatAlu                  0      0.00%     76.39% # Class of executed instruction
system.cpu0.op_class::SimdFloatCmp                  0      0.00%     76.39% # Class of executed instruction
system.cpu0.op_class::SimdFloatCvt                  0      0.00%     76.39% # Class of executed instruction
system.cpu0.op_class::SimdFloatDiv                  0      0.00%     76.39% # Class of executed instruction
system.cpu0.op_class::SimdFloatMisc                 0      0.00%     76.39% # Class of executed instruction
system.cpu0.op_class::SimdFloatMult                 0      0.00%     76.39% # Class of executed instruction
system.cpu0.op_class::SimdFloatMultAcc              0      0.00%     76.39% # Class of executed instruction
system.cpu0.op_class::SimdFloatSqrt                 0      0.00%     76.39% # Class of executed instruction
system.cpu0.op_class::MemRead                  433918     14.58%     90.96% # Class of executed instruction
system.cpu0.op_class::MemWrite                 268976      9.04%    100.00% # Class of executed instruction
system.cpu0.op_class::IprAccess                     0      0.00%    100.00% # Class of executed instruction
system.cpu0.op_class::InstPrefetch                  0      0.00%    100.00% # Class of executed instruction
system.cpu0.op_class::total                   2976704                       # Class of executed instruction
system.cpu1.apic_clk_domain.clock                8000                       # Clock period in ticks
system.cpu1.numCycles                      3437963585                       # number of cpu cycles simulated
system.cpu1.numWorkItemsStarted                     0                       # number of work items this cpu started
system.cpu1.numWorkItemsCompleted                   0                       # number of work items this cpu completed
system.cpu1.kern.inst.arm                           0                       # number of arm instructions executed
system.cpu1.kern.inst.quiesce                       0                       # number of quiesce instructions executed
system.cpu1.committedInsts                    3799544                       # Number of instructions committed
system.cpu1.committedOps                      7594791                       # Number of ops (including micro ops) committed
system.cpu1.num_int_alu_accesses              7458664                       # Number of integer alu accesses
system.cpu1.num_fp_alu_accesses                  1778                       # Number of float alu accesses
system.cpu1.num_func_calls                     197836                       # number of times a function call or return occured
system.cpu1.num_conditional_control_insts       640956                       # number of instructions that are conditional controls
system.cpu1.num_int_insts                     7458664                       # number of integer instructions
system.cpu1.num_fp_insts                         1778                       # number of float instructions
system.cpu1.num_int_register_reads           14839674                       # number of times the integer registers were read
system.cpu1.num_int_register_writes           6067860                       # number of times the integer registers were written
system.cpu1.num_fp_register_reads                2988                       # number of times the floating registers were read
system.cpu1.num_fp_register_writes               1416                       # number of times the floating registers were written
system.cpu1.num_cc_register_reads             4796952                       # number of times the CC registers were read
system.cpu1.num_cc_register_writes            2587077                       # number of times the CC registers were written
system.cpu1.num_mem_refs                      1718145                       # number of memory refs
system.cpu1.num_load_insts                    1115513                       # Number of load instructions
system.cpu1.num_store_insts                    602632                       # Number of store instructions
system.cpu1.num_idle_cycles              3421757479.894299                       # Number of idle cycles
system.cpu1.num_busy_cycles              16206105.105702                       # Number of busy cycles
system.cpu1.not_idle_fraction                0.004714                       # Percentage of non-idle cycles
system.cpu1.idle_fraction                    0.995286                       # Percentage of idle cycles
system.cpu1.Branches                           873967                       # Number of branches fetched
system.cpu1.op_class::No_OpClass                53584      0.71%      0.71% # Class of executed instruction
system.cpu1.op_class::IntAlu                  5796672     76.32%     77.03% # Class of executed instruction
system.cpu1.op_class::IntMult                    7490      0.10%     77.13% # Class of executed instruction
system.cpu1.op_class::IntDiv                    17646      0.23%     77.36% # Class of executed instruction
system.cpu1.op_class::FloatAdd                   1344      0.02%     77.38% # Class of executed instruction
system.cpu1.op_class::FloatCmp                      0      0.00%     77.38% # Class of executed instruction
system.cpu1.op_class::FloatCvt                      0      0.00%     77.38% # Class of executed instruction
system.cpu1.op_class::FloatMult                     0      0.00%     77.38% # Class of executed instruction
system.cpu1.op_class::FloatDiv                      0      0.00%     77.38% # Class of executed instruction
system.cpu1.op_class::FloatSqrt                     0      0.00%     77.38% # Class of executed instruction
system.cpu1.op_class::SimdAdd                       0      0.00%     77.38% # Class of executed instruction
system.cpu1.op_class::SimdAddAcc                    0      0.00%     77.38% # Class of executed instruction
system.cpu1.op_class::SimdAlu                       0      0.00%     77.38% # Class of executed instruction
system.cpu1.op_class::SimdCmp                       0      0.00%     77.38% # Class of executed instruction
system.cpu1.op_class::SimdCvt                       0      0.00%     77.38% # Class of executed instruction
system.cpu1.op_class::SimdMisc                      0      0.00%     77.38% # Class of executed instruction
system.cpu1.op_class::SimdMult                      0      0.00%     77.38% # Class of executed instruction
system.cpu1.op_class::SimdMultAcc                   0      0.00%     77.38% # Class of executed instruction
system.cpu1.op_class::SimdShift                     0      0.00%     77.38% # Class of executed instruction
system.cpu1.op_class::SimdShiftAcc                  0      0.00%     77.38% # Class of executed instruction
system.cpu1.op_class::SimdSqrt                      0      0.00%     77.38% # Class of executed instruction
system.cpu1.op_class::SimdFloatAdd                  0      0.00%     77.38% # Class of executed instruction
system.cpu1.op_class::SimdFloatAlu                  0      0.00%     77.38% # Class of executed instruction
system.cpu1.op_class::SimdFloatCmp                  0      0.00%     77.38% # Class of executed instruction
system.cpu1.op_class::SimdFloatCvt                  0      0.00%     77.38% # Class of executed instruction
system.cpu1.op_class::SimdFloatDiv                  0      0.00%     77.38% # Class of executed instruction
system.cpu1.op_class::SimdFloatMisc                 0      0.00%     77.38% # Class of executed instruction
system.cpu1.op_class::SimdFloatMult                 0      0.00%     77.38% # Class of executed instruction
system.cpu1.op_class::SimdFloatMultAcc              0      0.00%     77.38% # Class of executed instruction
system.cpu1.op_class::SimdFloatSqrt                 0      0.00%     77.38% # Class of executed instruction
system.cpu1.op_class::MemRead                 1115513     14.69%     92.07% # Class of executed instruction
system.cpu1.op_class::MemWrite                 602632      7.93%    100.00% # Class of executed instruction
system.cpu1.op_class::IprAccess                     0      0.00%    100.00% # Class of executed instruction
system.cpu1.op_class::InstPrefetch                  0      0.00%    100.00% # Class of executed instruction
system.cpu1.op_class::total                   7594881                       # Class of executed instruction
system.cpu2.apic_clk_domain.clock                8000                       # Clock period in ticks
system.cpu2.numCycles                      3443203469                       # number of cpu cycles simulated
system.cpu2.numWorkItemsStarted                     0                       # number of work items this cpu started
system.cpu2.numWorkItemsCompleted                   0                       # number of work items this cpu completed
system.cpu2.kern.inst.arm                           0                       # number of arm instructions executed
system.cpu2.kern.inst.quiesce                       0                       # number of quiesce instructions executed
system.cpu2.committedInsts                    1258143                       # Number of instructions committed
system.cpu2.committedOps                      2710264                       # Number of ops (including micro ops) committed
system.cpu2.num_int_alu_accesses              2649911                       # Number of integer alu accesses
system.cpu2.num_fp_alu_accesses                    39                       # Number of float alu accesses
system.cpu2.num_func_calls                      74098                       # number of times a function call or return occured
system.cpu2.num_conditional_control_insts       191492                       # number of instructions that are conditional controls
system.cpu2.num_int_insts                     2649911                       # number of integer instructions
system.cpu2.num_fp_insts                           39                       # number of float instructions
system.cpu2.num_int_register_reads            5391482                       # number of times the integer registers were read
system.cpu2.num_int_register_writes           2198466                       # number of times the integer registers were written
system.cpu2.num_fp_register_reads                  63                       # number of times the floating registers were read
system.cpu2.num_fp_register_writes                 31                       # number of times the floating registers were written
system.cpu2.num_cc_register_reads             1532096                       # number of times the CC registers were read
system.cpu2.num_cc_register_writes             801780                       # number of times the CC registers were written
system.cpu2.num_mem_refs                       645910                       # number of memory refs
system.cpu2.num_load_insts                     400678                       # Number of load instructions
system.cpu2.num_store_insts                    245232                       # Number of store instructions
system.cpu2.num_idle_cycles              3437771747.225124                       # Number of idle cycles
system.cpu2.num_busy_cycles              5431721.774876                       # Number of busy cycles
system.cpu2.not_idle_fraction                0.001578                       # Percentage of non-idle cycles
system.cpu2.idle_fraction                    0.998422                       # Percentage of idle cycles
system.cpu2.Branches                           289987                       # Number of branches fetched
system.cpu2.op_class::No_OpClass                51542      1.90%      1.90% # Class of executed instruction
system.cpu2.op_class::IntAlu                  1989242     73.40%     75.30% # Class of executed instruction
system.cpu2.op_class::IntMult                    5272      0.19%     75.49% # Class of executed instruction
system.cpu2.op_class::IntDiv                    18290      0.67%     76.17% # Class of executed instruction
system.cpu2.op_class::FloatAdd                     30      0.00%     76.17% # Class of executed instruction
system.cpu2.op_class::FloatCmp                      0      0.00%     76.17% # Class of executed instruction
system.cpu2.op_class::FloatCvt                      0      0.00%     76.17% # Class of executed instruction
system.cpu2.op_class::FloatMult                     0      0.00%     76.17% # Class of executed instruction
system.cpu2.op_class::FloatDiv                      0      0.00%     76.17% # Class of executed instruction
system.cpu2.op_class::FloatSqrt                     0      0.00%     76.17% # Class of executed instruction
system.cpu2.op_class::SimdAdd                       0      0.00%     76.17% # Class of executed instruction
system.cpu2.op_class::SimdAddAcc                    0      0.00%     76.17% # Class of executed instruction
system.cpu2.op_class::SimdAlu                       0      0.00%     76.17% # Class of executed instruction
system.cpu2.op_class::SimdCmp                       0      0.00%     76.17% # Class of executed instruction
system.cpu2.op_class::SimdCvt                       0      0.00%     76.17% # Class of executed instruction
system.cpu2.op_class::SimdMisc                      0      0.00%     76.17% # Class of executed instruction
system.cpu2.op_class::SimdMult                      0      0.00%     76.17% # Class of executed instruction
system.cpu2.op_class::SimdMultAcc                   0      0.00%     76.17% # Class of executed instruction
system.cpu2.op_class::SimdShift                     0      0.00%     76.17% # Class of executed instruction
system.cpu2.op_class::SimdShiftAcc                  0      0.00%     76.17% # Class of executed instruction
system.cpu2.op_class::SimdSqrt                      0      0.00%     76.17% # Class of executed instruction
system.cpu2.op_class::SimdFloatAdd                  0      0.00%     76.17% # Class of executed instruction
system.cpu2.op_class::SimdFloatAlu                  0      0.00%     76.17% # Class of executed instruction
system.cpu2.op_class::SimdFloatCmp                  0      0.00%     76.17% # Class of executed instruction
system.cpu2.op_class::SimdFloatCvt                  0      0.00%     76.17% # Class of executed instruction
system.cpu2.op_class::SimdFloatDiv                  0      0.00%     76.17% # Class of executed instruction
system.cpu2.op_class::SimdFloatMisc                 0      0.00%     76.17% # Class of executed instruction
system.cpu2.op_class::SimdFloatMult                 0      0.00%     76.17% # Class of executed instruction
system.cpu2.op_class::SimdFloatMultAcc              0      0.00%     76.17% # Class of executed instruction
system.cpu2.op_class::SimdFloatSqrt                 0      0.00%     76.17% # Class of executed instruction
system.cpu2.op_class::MemRead                  400678     14.78%     90.95% # Class of executed instruction
system.cpu2.op_class::MemWrite                 245232      9.05%    100.00% # Class of executed instruction
system.cpu2.op_class::IprAccess                     0      0.00%    100.00% # Class of executed instruction
system.cpu2.op_class::InstPrefetch                  0      0.00%    100.00% # Class of executed instruction
system.cpu2.op_class::total                   2710286                       # Class of executed instruction
system.cpu3.apic_clk_domain.clock                8000                       # Clock period in ticks
system.cpu3.numCycles                      3441794254                       # number of cpu cycles simulated
system.cpu3.numWorkItemsStarted                     0                       # number of work items this cpu started
system.cpu3.numWorkItemsCompleted                   0                       # number of work items this cpu completed
system.cpu3.kern.inst.arm                           0                       # number of arm instructions executed
system.cpu3.kern.inst.quiesce                       0                       # number of quiesce instructions executed
system.cpu3.committedInsts                  717077393                       # Number of instructions committed
system.cpu3.committedOps                   1064254833                       # Number of ops (including micro ops) committed
system.cpu3.num_int_alu_accesses            463765890                       # Number of integer alu accesses
system.cpu3.num_fp_alu_accesses             708837843                       # Number of float alu accesses
system.cpu3.num_func_calls                     895411                       # number of times a function call or return occured
system.cpu3.num_conditional_control_insts     10824338                       # number of instructions that are conditional controls
system.cpu3.num_int_insts                   463765890                       # number of integer instructions
system.cpu3.num_fp_insts                    708837843                       # number of float instructions
system.cpu3.num_int_register_reads          971618035                       # number of times the integer registers were read
system.cpu3.num_int_register_writes         343671747                       # number of times the integer registers were written
system.cpu3.num_fp_register_reads          1593836311                       # number of times the floating registers were read
system.cpu3.num_fp_register_writes          654311799                       # number of times the floating registers were written
system.cpu3.num_cc_register_reads           111583830                       # number of times the CC registers were read
system.cpu3.num_cc_register_writes          201592411                       # number of times the CC registers were written
system.cpu3.num_mem_refs                    129311169                       # number of memory refs
system.cpu3.num_load_insts                   75418143                       # Number of load instructions
system.cpu3.num_store_insts                  53893026                       # Number of store instructions
system.cpu3.num_idle_cycles              11221511.903725                       # Number of idle cycles
system.cpu3.num_busy_cycles              3430572742.096275                       # Number of busy cycles
system.cpu3.not_idle_fraction                0.996740                       # Percentage of non-idle cycles
system.cpu3.idle_fraction                    0.003260                       # Percentage of idle cycles
system.cpu3.Branches                         12009936                       # Number of branches fetched
system.cpu3.op_class::No_OpClass               313029      0.03%      0.03% # Class of executed instruction
system.cpu3.op_class::IntAlu                431240520     40.52%     40.55% # Class of executed instruction
system.cpu3.op_class::IntMult                   87628      0.01%     40.56% # Class of executed instruction
system.cpu3.op_class::IntDiv                     2214      0.00%     40.56% # Class of executed instruction
system.cpu3.op_class::FloatAdd              503316796     47.29%     87.85% # Class of executed instruction
system.cpu3.op_class::FloatCmp                      0      0.00%     87.85% # Class of executed instruction
system.cpu3.op_class::FloatCvt                      0      0.00%     87.85% # Class of executed instruction
system.cpu3.op_class::FloatMult                     0      0.00%     87.85% # Class of executed instruction
system.cpu3.op_class::FloatDiv                      0      0.00%     87.85% # Class of executed instruction
system.cpu3.op_class::FloatSqrt                     0      0.00%     87.85% # Class of executed instruction
system.cpu3.op_class::SimdAdd                       0      0.00%     87.85% # Class of executed instruction
system.cpu3.op_class::SimdAddAcc                    0      0.00%     87.85% # Class of executed instruction
system.cpu3.op_class::SimdAlu                       0      0.00%     87.85% # Class of executed instruction
system.cpu3.op_class::SimdCmp                       0      0.00%     87.85% # Class of executed instruction
system.cpu3.op_class::SimdCvt                       0      0.00%     87.85% # Class of executed instruction
system.cpu3.op_class::SimdMisc                      0      0.00%     87.85% # Class of executed instruction
system.cpu3.op_class::SimdMult                      0      0.00%     87.85% # Class of executed instruction
system.cpu3.op_class::SimdMultAcc                   0      0.00%     87.85% # Class of executed instruction
system.cpu3.op_class::SimdShift                     0      0.00%     87.85% # Class of executed instruction
system.cpu3.op_class::SimdShiftAcc                  0      0.00%     87.85% # Class of executed instruction
system.cpu3.op_class::SimdSqrt                      0      0.00%     87.85% # Class of executed instruction
system.cpu3.op_class::SimdFloatAdd                  0      0.00%     87.85% # Class of executed instruction
system.cpu3.op_class::SimdFloatAlu                  0      0.00%     87.85% # Class of executed instruction
system.cpu3.op_class::SimdFloatCmp                  0      0.00%     87.85% # Class of executed instruction
system.cpu3.op_class::SimdFloatCvt                  0      0.00%     87.85% # Class of executed instruction
system.cpu3.op_class::SimdFloatDiv                  0      0.00%     87.85% # Class of executed instruction
system.cpu3.op_class::SimdFloatMisc                 0      0.00%     87.85% # Class of executed instruction
system.cpu3.op_class::SimdFloatMult                 0      0.00%     87.85% # Class of executed instruction
system.cpu3.op_class::SimdFloatMultAcc              0      0.00%     87.85% # Class of executed instruction
system.cpu3.op_class::SimdFloatSqrt                 0      0.00%     87.85% # Class of executed instruction
system.cpu3.op_class::MemRead                75418143      7.09%     94.94% # Class of executed instruction
system.cpu3.op_class::MemWrite               53893026      5.06%    100.00% # Class of executed instruction
system.cpu3.op_class::IprAccess                     0      0.00%    100.00% # Class of executed instruction
system.cpu3.op_class::InstPrefetch                  0      0.00%    100.00% # Class of executed instruction
system.cpu3.op_class::total                1064271356                       # Class of executed instruction
system.iobus.trans_dist::ReadReq                   83                       # Transaction distribution
system.iobus.trans_dist::ReadResp                  83                       # Transaction distribution
system.iobus.trans_dist::WriteReq                1784                       # Transaction distribution
system.iobus.trans_dist::WriteResp               1784                       # Transaction distribution
system.iobus.trans_dist::MessageReq                13                       # Transaction distribution
system.iobus.trans_dist::MessageResp               13                       # Transaction distribution
system.iobus.pkt_count_system.pc.south_bridge.io_apic.int_master::system.ruby.l1_cntrl0.sequencer.pio-slave-port            2                       # Packet count per connected master and slave (bytes)
system.iobus.pkt_count_system.pc.south_bridge.io_apic.int_master::system.ruby.l1_cntrl1.sequencer.pio-slave-port            4                       # Packet count per connected master and slave (bytes)
system.iobus.pkt_count_system.pc.south_bridge.io_apic.int_master::system.ruby.l1_cntrl2.sequencer.pio-slave-port            2                       # Packet count per connected master and slave (bytes)
system.iobus.pkt_count_system.pc.south_bridge.io_apic.int_master::system.ruby.l1_cntrl3.sequencer.pio-slave-port            2                       # Packet count per connected master and slave (bytes)
system.iobus.pkt_count_system.pc.south_bridge.io_apic.int_master::total           10                       # Packet count per connected master and slave (bytes)
system.iobus.pkt_count_system.ruby.l1_cntrl0.sequencer.mem-master-port::system.pc.south_bridge.io_apic.pio            6                       # Packet count per connected master and slave (bytes)
system.iobus.pkt_count_system.ruby.l1_cntrl0.sequencer.mem-master-port::system.pc.com_1.pio           22                       # Packet count per connected master and slave (bytes)
system.iobus.pkt_count_system.ruby.l1_cntrl0.sequencer.mem-master-port::system.ruby.l1_cntrl0.sequencer.pio-slave-port          872                       # Packet count per connected master and slave (bytes)
system.iobus.pkt_count_system.ruby.l1_cntrl0.sequencer.mem-master-port::system.ruby.l1_cntrl1.sequencer.pio-slave-port            2                       # Packet count per connected master and slave (bytes)
system.iobus.pkt_count_system.ruby.l1_cntrl0.sequencer.mem-master-port::total          902                       # Packet count per connected master and slave (bytes)
system.iobus.pkt_count_system.ruby.l1_cntrl1.sequencer.mem-master-port::system.pc.south_bridge.io_apic.pio           14                       # Packet count per connected master and slave (bytes)
system.iobus.pkt_count_system.ruby.l1_cntrl1.sequencer.mem-master-port::system.pc.com_1.pio          162                       # Packet count per connected master and slave (bytes)
system.iobus.pkt_count_system.ruby.l1_cntrl1.sequencer.mem-master-port::system.ruby.l1_cntrl0.sequencer.pio-slave-port            2                       # Packet count per connected master and slave (bytes)
system.iobus.pkt_count_system.ruby.l1_cntrl1.sequencer.mem-master-port::system.ruby.l1_cntrl1.sequencer.pio-slave-port          886                       # Packet count per connected master and slave (bytes)
system.iobus.pkt_count_system.ruby.l1_cntrl1.sequencer.mem-master-port::system.ruby.l1_cntrl2.sequencer.pio-slave-port            2                       # Packet count per connected master and slave (bytes)
system.iobus.pkt_count_system.ruby.l1_cntrl1.sequencer.mem-master-port::system.ruby.l1_cntrl3.sequencer.pio-slave-port            2                       # Packet count per connected master and slave (bytes)
system.iobus.pkt_count_system.ruby.l1_cntrl1.sequencer.mem-master-port::total         1068                       # Packet count per connected master and slave (bytes)
system.iobus.pkt_count_system.ruby.l1_cntrl2.sequencer.mem-master-port::system.pc.south_bridge.io_apic.pio            8                       # Packet count per connected master and slave (bytes)
system.iobus.pkt_count_system.ruby.l1_cntrl2.sequencer.mem-master-port::system.ruby.l1_cntrl2.sequencer.pio-slave-port          872                       # Packet count per connected master and slave (bytes)
system.iobus.pkt_count_system.ruby.l1_cntrl2.sequencer.mem-master-port::system.ruby.l1_cntrl3.sequencer.pio-slave-port            2                       # Packet count per connected master and slave (bytes)
system.iobus.pkt_count_system.ruby.l1_cntrl2.sequencer.mem-master-port::total          882                       # Packet count per connected master and slave (bytes)
system.iobus.pkt_count_system.ruby.l1_cntrl3.sequencer.mem-master-port::system.pc.south_bridge.io_apic.pio            8                       # Packet count per connected master and slave (bytes)
system.iobus.pkt_count_system.ruby.l1_cntrl3.sequencer.mem-master-port::system.ruby.l1_cntrl0.sequencer.pio-slave-port            2                       # Packet count per connected master and slave (bytes)
system.iobus.pkt_count_system.ruby.l1_cntrl3.sequencer.mem-master-port::system.ruby.l1_cntrl1.sequencer.pio-slave-port            2                       # Packet count per connected master and slave (bytes)
system.iobus.pkt_count_system.ruby.l1_cntrl3.sequencer.mem-master-port::system.ruby.l1_cntrl2.sequencer.pio-slave-port            2                       # Packet count per connected master and slave (bytes)
system.iobus.pkt_count_system.ruby.l1_cntrl3.sequencer.mem-master-port::system.ruby.l1_cntrl3.sequencer.pio-slave-port          884                       # Packet count per connected master and slave (bytes)
system.iobus.pkt_count_system.ruby.l1_cntrl3.sequencer.mem-master-port::total          898                       # Packet count per connected master and slave (bytes)
system.iobus.pkt_count::total                    3760                       # Packet count per connected master and slave (bytes)
system.iobus.pkt_size_system.pc.south_bridge.io_apic.int_master::system.ruby.l1_cntrl0.sequencer.pio-slave-port            4                       # Cumulative packet size per connected master and slave (bytes)
system.iobus.pkt_size_system.pc.south_bridge.io_apic.int_master::system.ruby.l1_cntrl1.sequencer.pio-slave-port            8                       # Cumulative packet size per connected master and slave (bytes)
system.iobus.pkt_size_system.pc.south_bridge.io_apic.int_master::system.ruby.l1_cntrl2.sequencer.pio-slave-port            4                       # Cumulative packet size per connected master and slave (bytes)
system.iobus.pkt_size_system.pc.south_bridge.io_apic.int_master::system.ruby.l1_cntrl3.sequencer.pio-slave-port            4                       # Cumulative packet size per connected master and slave (bytes)
system.iobus.pkt_size_system.pc.south_bridge.io_apic.int_master::total           20                       # Cumulative packet size per connected master and slave (bytes)
system.iobus.pkt_size_system.ruby.l1_cntrl0.sequencer.mem-master-port::system.pc.south_bridge.io_apic.pio           12                       # Cumulative packet size per connected master and slave (bytes)
system.iobus.pkt_size_system.ruby.l1_cntrl0.sequencer.mem-master-port::system.pc.com_1.pio           11                       # Cumulative packet size per connected master and slave (bytes)
system.iobus.pkt_size_system.ruby.l1_cntrl0.sequencer.mem-master-port::system.ruby.l1_cntrl0.sequencer.pio-slave-port         1744                       # Cumulative packet size per connected master and slave (bytes)
system.iobus.pkt_size_system.ruby.l1_cntrl0.sequencer.mem-master-port::system.ruby.l1_cntrl1.sequencer.pio-slave-port            4                       # Cumulative packet size per connected master and slave (bytes)
system.iobus.pkt_size_system.ruby.l1_cntrl0.sequencer.mem-master-port::total         1771                       # Cumulative packet size per connected master and slave (bytes)
system.iobus.pkt_size_system.ruby.l1_cntrl1.sequencer.mem-master-port::system.pc.south_bridge.io_apic.pio           28                       # Cumulative packet size per connected master and slave (bytes)
system.iobus.pkt_size_system.ruby.l1_cntrl1.sequencer.mem-master-port::system.pc.com_1.pio           81                       # Cumulative packet size per connected master and slave (bytes)
system.iobus.pkt_size_system.ruby.l1_cntrl1.sequencer.mem-master-port::system.ruby.l1_cntrl0.sequencer.pio-slave-port            4                       # Cumulative packet size per connected master and slave (bytes)
system.iobus.pkt_size_system.ruby.l1_cntrl1.sequencer.mem-master-port::system.ruby.l1_cntrl1.sequencer.pio-slave-port         1772                       # Cumulative packet size per connected master and slave (bytes)
system.iobus.pkt_size_system.ruby.l1_cntrl1.sequencer.mem-master-port::system.ruby.l1_cntrl2.sequencer.pio-slave-port            4                       # Cumulative packet size per connected master and slave (bytes)
system.iobus.pkt_size_system.ruby.l1_cntrl1.sequencer.mem-master-port::system.ruby.l1_cntrl3.sequencer.pio-slave-port            4                       # Cumulative packet size per connected master and slave (bytes)
system.iobus.pkt_size_system.ruby.l1_cntrl1.sequencer.mem-master-port::total         1893                       # Cumulative packet size per connected master and slave (bytes)
system.iobus.pkt_size_system.ruby.l1_cntrl2.sequencer.mem-master-port::system.pc.south_bridge.io_apic.pio           16                       # Cumulative packet size per connected master and slave (bytes)
system.iobus.pkt_size_system.ruby.l1_cntrl2.sequencer.mem-master-port::system.ruby.l1_cntrl2.sequencer.pio-slave-port         1744                       # Cumulative packet size per connected master and slave (bytes)
system.iobus.pkt_size_system.ruby.l1_cntrl2.sequencer.mem-master-port::system.ruby.l1_cntrl3.sequencer.pio-slave-port            4                       # Cumulative packet size per connected master and slave (bytes)
system.iobus.pkt_size_system.ruby.l1_cntrl2.sequencer.mem-master-port::total         1764                       # Cumulative packet size per connected master and slave (bytes)
system.iobus.pkt_size_system.ruby.l1_cntrl3.sequencer.mem-master-port::system.pc.south_bridge.io_apic.pio           16                       # Cumulative packet size per connected master and slave (bytes)
system.iobus.pkt_size_system.ruby.l1_cntrl3.sequencer.mem-master-port::system.ruby.l1_cntrl0.sequencer.pio-slave-port            4                       # Cumulative packet size per connected master and slave (bytes)
system.iobus.pkt_size_system.ruby.l1_cntrl3.sequencer.mem-master-port::system.ruby.l1_cntrl1.sequencer.pio-slave-port            4                       # Cumulative packet size per connected master and slave (bytes)
system.iobus.pkt_size_system.ruby.l1_cntrl3.sequencer.mem-master-port::system.ruby.l1_cntrl2.sequencer.pio-slave-port            4                       # Cumulative packet size per connected master and slave (bytes)
system.iobus.pkt_size_system.ruby.l1_cntrl3.sequencer.mem-master-port::system.ruby.l1_cntrl3.sequencer.pio-slave-port         1768                       # Cumulative packet size per connected master and slave (bytes)
system.iobus.pkt_size_system.ruby.l1_cntrl3.sequencer.mem-master-port::total         1796                       # Cumulative packet size per connected master and slave (bytes)
system.iobus.pkt_size::total                     7244                       # Cumulative packet size per connected master and slave (bytes)
system.iobus.reqLayer8.occupancy                30996                       # Layer occupancy (ticks)
system.iobus.reqLayer8.utilization                0.0                       # Layer utilization (%)
system.iobus.reqLayer12.occupancy              120000                       # Layer occupancy (ticks)
system.iobus.reqLayer12.utilization               0.0                       # Layer utilization (%)
system.iobus.reqLayer17.occupancy             1069500                       # Layer occupancy (ticks)
system.iobus.reqLayer17.utilization               0.0                       # Layer utilization (%)
system.iobus.reqLayer18.occupancy             1093998                       # Layer occupancy (ticks)
system.iobus.reqLayer18.utilization               0.0                       # Layer utilization (%)
system.iobus.reqLayer19.occupancy             1088000                       # Layer occupancy (ticks)
system.iobus.reqLayer19.utilization               0.0                       # Layer utilization (%)
system.iobus.reqLayer20.occupancy             1104780                       # Layer occupancy (ticks)
system.iobus.reqLayer20.utilization               0.0                       # Layer utilization (%)
system.iobus.respLayer0.occupancy                6500                       # Layer occupancy (ticks)
system.iobus.respLayer0.utilization               0.0                       # Layer utilization (%)
system.iobus.respLayer2.occupancy              679000                       # Layer occupancy (ticks)
system.iobus.respLayer2.utilization               0.0                       # Layer utilization (%)
system.iobus.respLayer4.occupancy              820500                       # Layer occupancy (ticks)
system.iobus.respLayer4.utilization               0.0                       # Layer utilization (%)
system.iobus.respLayer6.occupancy              662000                       # Layer occupancy (ticks)
system.iobus.respLayer6.utilization               0.0                       # Layer utilization (%)
system.iobus.respLayer8.occupancy              675500                       # Layer occupancy (ticks)
system.iobus.respLayer8.utilization               0.0                       # Layer utilization (%)
system.pc.south_bridge.ide.disks.dma_read_full_pages            0                       # Number of full page size DMA reads (not PRD).
system.pc.south_bridge.ide.disks.dma_read_bytes            0                       # Number of bytes transfered via DMA reads (not PRD).
system.pc.south_bridge.ide.disks.dma_read_txs            0                       # Number of DMA read transactions (not PRD).
system.pc.south_bridge.ide.disks.dma_write_full_pages            0                       # Number of full page size DMA writes.
system.pc.south_bridge.ide.disks.dma_write_bytes            0                       # Number of bytes transfered via DMA writes.
system.pc.south_bridge.ide.disks.dma_write_txs            0                       # Number of DMA write transactions.
system.ruby.clk_domain.clock                      500                       # Clock period in ticks
system.ruby.outstanding_req_hist_seqr::bucket_size            1                      
system.ruby.outstanding_req_hist_seqr::max_bucket            9                      
system.ruby.outstanding_req_hist_seqr::samples   1225546894                      
system.ruby.outstanding_req_hist_seqr::mean     1.000000                      
system.ruby.outstanding_req_hist_seqr::gmean     1.000000                      
system.ruby.outstanding_req_hist_seqr::stdev     0.000440                      
system.ruby.outstanding_req_hist_seqr    |           0      0.00%      0.00% |  1225546657    100.00%    100.00% |         237      0.00%    100.00% |           0      0.00%    100.00% |           0      0.00%    100.00% |           0      0.00%    100.00% |           0      0.00%    100.00% |           0      0.00%    100.00% |           0      0.00%    100.00% |           0      0.00%    100.00%
system.ruby.outstanding_req_hist_seqr::total   1225546894                      
system.ruby.latency_hist_seqr::bucket_size          256                      
system.ruby.latency_hist_seqr::max_bucket         2559                      
system.ruby.latency_hist_seqr::samples     1225546894                      
system.ruby.latency_hist_seqr::mean          1.819879                      
system.ruby.latency_hist_seqr::gmean         1.052632                      
system.ruby.latency_hist_seqr::stdev        10.740881                      
system.ruby.latency_hist_seqr            |  1225348079     99.98%     99.98% |      132551      0.01%     99.99% |       63033      0.01%    100.00% |        2191      0.00%    100.00% |         655      0.00%    100.00% |         244      0.00%    100.00% |         106      0.00%    100.00% |          21      0.00%    100.00% |          14      0.00%    100.00% |           0      0.00%    100.00%
system.ruby.latency_hist_seqr::total       1225546894                      
system.ruby.hit_latency_hist_seqr::bucket_size            1                      
system.ruby.hit_latency_hist_seqr::max_bucket            9                      
system.ruby.hit_latency_hist_seqr::samples   1207721003                      
system.ruby.hit_latency_hist_seqr::mean             1                      
system.ruby.hit_latency_hist_seqr::gmean            1                      
system.ruby.hit_latency_hist_seqr        |           0      0.00%      0.00% |  1207721003    100.00%    100.00% |           0      0.00%    100.00% |           0      0.00%    100.00% |           0      0.00%    100.00% |           0      0.00%    100.00% |           0      0.00%    100.00% |           0      0.00%    100.00% |           0      0.00%    100.00% |           0      0.00%    100.00%
system.ruby.hit_latency_hist_seqr::total   1207721003                      
system.ruby.miss_latency_hist_seqr::bucket_size          256                      
system.ruby.miss_latency_hist_seqr::max_bucket         2559                      
system.ruby.miss_latency_hist_seqr::samples     17825891                      
system.ruby.miss_latency_hist_seqr::mean    57.367468                      
system.ruby.miss_latency_hist_seqr::gmean    34.005174                      
system.ruby.miss_latency_hist_seqr::stdev    69.285500                      
[...]
system.ruby.L1Cache_Controller.O.L1_Replacement::total         1019                      
system.ruby.L1Cache_Controller.O.Fwd_GETX |        1944     23.21%     23.21% |        3943     47.07%     70.28% |        2275     27.16%     97.45% |         214      2.55%    100.00%
system.ruby.L1Cache_Controller.O.Fwd_GETX::total         8376                      
system.ruby.L1Cache_Controller.O.Fwd_GETS |         550      9.73%      9.73% |        3799     67.22%     76.95% |         985     17.43%     94.37% |         318      5.63%    100.00%
system.ruby.L1Cache_Controller.O.Fwd_GETS::total         5652                      
system.ruby.L1Cache_Controller.M.Load    |       24088      0.32%      0.32% |      206239      2.73%      3.05% |       36206      0.48%      3.53% |     7289316     96.47%    100.00%
system.ruby.L1Cache_Controller.M.Load::total      7555849                      
system.ruby.L1Cache_Controller.M.Store   |        1263      0.12%      0.12% |       58983      5.38%      5.50% |        1722      0.16%      5.66% |     1033454     94.34%    100.00%
system.ruby.L1Cache_Controller.M.Store::total      1095422                      
system.ruby.L1Cache_Controller.M.L1_Replacement |        1633      0.10%      0.10% |       20913      1.26%      1.35% |        2414      0.14%      1.50% |     1640117     98.50%    100.00%
system.ruby.L1Cache_Controller.M.L1_Replacement::total      1665077                      
system.ruby.L1Cache_Controller.M.Fwd_GETX |         249     17.71%     17.71% |         280     19.91%     37.62% |         804     57.18%     94.81% |          73      5.19%    100.00%
system.ruby.L1Cache_Controller.M.Fwd_GETX::total         1406                      
system.ruby.L1Cache_Controller.M.Fwd_GETS |        2008     21.21%     21.21% |        4064     42.93%     64.15% |        2592     27.38%     91.53% |         802      8.47%    100.00%
system.ruby.L1Cache_Controller.M.Fwd_GETS::total         9466                      
system.ruby.L1Cache_Controller.M_W.Load  |        2941      2.45%      2.45% |       95302     79.54%     82.00% |        5330      4.45%     86.44% |       16242     13.56%    100.00%
system.ruby.L1Cache_Controller.M_W.Load::total       119815                      
system.ruby.L1Cache_Controller.M_W.Store |         412      0.04%      0.04% |        7849      0.84%      0.89% |        1180      0.13%      1.01% |      920894     98.99%    100.00%
system.ruby.L1Cache_Controller.M_W.Store::total       930335                      
system.ruby.L1Cache_Controller.M_W.L1_Replacement |           0      0.00%      0.00% |          35     29.91%     29.91% |           0      0.00%     29.91% |          82     70.09%    100.00%
system.ruby.L1Cache_Controller.M_W.L1_Replacement::total          117                      
system.ruby.L1Cache_Controller.M_W.Fwd_GETX |          36     63.16%     63.16% |           9     15.79%     78.95% |           4      7.02%     85.96% |           8     14.04%    100.00%
system.ruby.L1Cache_Controller.M_W.Fwd_GETX::total           57                      
system.ruby.L1Cache_Controller.M_W.Fwd_GETS |         109     36.70%     36.70% |          39     13.13%     49.83% |         115     38.72%     88.55% |          34     11.45%    100.00%
system.ruby.L1Cache_Controller.M_W.Fwd_GETS::total          297                      
system.ruby.L1Cache_Controller.M_W.Use_Timeout |        5343      0.19%      0.19% |       84183      3.04%      3.23% |        7593      0.27%      3.50% |     2674535     96.50%    100.00%
system.ruby.L1Cache_Controller.M_W.Use_Timeout::total      2771654                      
system.ruby.L1Cache_Controller.MM.Load   |      460421      2.14%      2.14% |     2542236     11.81%     13.95% |      583080      2.71%     16.65% |    17945938     83.35%    100.00%
system.ruby.L1Cache_Controller.MM.Load::total     21531675                      
system.ruby.L1Cache_Controller.MM.Store  |      448710      0.70%      0.70% |     2468969      3.85%      4.55% |      601657      0.94%      5.49% |    60547242     94.51%    100.00%
system.ruby.L1Cache_Controller.MM.Store::total     64066578                      
system.ruby.L1Cache_Controller.MM.L1_Replacement |        6760      0.06%      0.06% |      122238      1.13%      1.19% |       12681      0.12%      1.31% |    10658841     98.69%    100.00%
system.ruby.L1Cache_Controller.MM.L1_Replacement::total     10800520                      
system.ruby.L1Cache_Controller.MM.Fwd_GETX |        1306     29.87%     29.87% |         984     22.51%     52.38% |        1255     28.71%     81.08% |         827     18.92%    100.00%
system.ruby.L1Cache_Controller.MM.Fwd_GETX::total         4372                      
system.ruby.L1Cache_Controller.MM.Fwd_GETS |        4612     38.72%     38.72% |        2387     20.04%     58.76% |        2589     21.74%     80.50% |        2323     19.50%    100.00%
system.ruby.L1Cache_Controller.MM.Fwd_GETS::total        11911                      
system.ruby.L1Cache_Controller.MM.Fwd_DMA |           0      0.00%      0.00% |           2    100.00%    100.00% |           0      0.00%    100.00% |           0      0.00%    100.00%
system.ruby.L1Cache_Controller.MM.Fwd_DMA::total            2                      
system.ruby.L1Cache_Controller.MM_W.Load |        2007      5.21%      5.21% |        8542     22.17%     27.38% |        1160      3.01%     30.39% |       26814     69.61%    100.00%
system.ruby.L1Cache_Controller.MM_W.Load::total        38523                      
system.ruby.L1Cache_Controller.MM_W.Store |       36233      0.41%      0.41% |      116492      1.33%      1.74% |       71841      0.82%      2.56% |     8550438     97.44%    100.00%
system.ruby.L1Cache_Controller.MM_W.Store::total      8775004                      
system.ruby.L1Cache_Controller.MM_W.L1_Replacement |           0      0.00%      0.00% |           0      0.00%      0.00% |           0      0.00%      0.00% |         182    100.00%    100.00%
system.ruby.L1Cache_Controller.MM_W.L1_Replacement::total          182                      
system.ruby.L1Cache_Controller.MM_W.Fwd_GETX |           5     29.41%     29.41% |           3     17.65%     47.06% |           5     29.41%     76.47% |           4     23.53%    100.00%
system.ruby.L1Cache_Controller.MM_W.Fwd_GETX::total           17                      
system.ruby.L1Cache_Controller.MM_W.Fwd_GETS |         128     14.13%     14.13% |         223     24.61%     38.74% |         330     36.42%     75.17% |         225     24.83%    100.00%
system.ruby.L1Cache_Controller.MM_W.Fwd_GETS::total          906                      
system.ruby.L1Cache_Controller.MM_W.Use_Timeout |       11557      0.12%      0.12% |       66603      0.69%      0.80% |       15292      0.16%      0.96% |     9628625     99.04%    100.00%
system.ruby.L1Cache_Controller.MM_W.Use_Timeout::total      9722077                      
system.ruby.L1Cache_Controller.IM.Ack    |        3618     31.82%     31.82% |        3742     32.91%     64.73% |        1587     13.96%     78.68% |        2424     21.32%    100.00%
system.ruby.L1Cache_Controller.IM.Ack::total        11371                      
system.ruby.L1Cache_Controller.IM.Exclusive_Data |        7715      0.09%      0.09% |       48472      0.55%      0.64% |       12275      0.14%      0.78% |     8681901     99.22%    100.00%
system.ruby.L1Cache_Controller.IM.Exclusive_Data::total      8750363                      
system.ruby.L1Cache_Controller.SM.Ack    |        3395     50.98%     50.98% |        1236     18.56%     69.54% |         609      9.15%     78.69% |        1419     21.31%    100.00%
system.ruby.L1Cache_Controller.SM.Ack::total         6659                      
system.ruby.L1Cache_Controller.SM.Exclusive_Data |        3387      8.22%      8.22% |       10262     24.90%     33.12% |        1764      4.28%     37.40% |       25793     62.60%    100.00%
system.ruby.L1Cache_Controller.SM.Exclusive_Data::total        41206                      
system.ruby.L1Cache_Controller.OM.Own_GETX |          43     24.86%     24.86% |          20     11.56%     36.42% |          73     42.20%     78.61% |          37     21.39%    100.00%
system.ruby.L1Cache_Controller.OM.Own_GETX::total          173                      
system.ruby.L1Cache_Controller.OM.Ack    |        1433     36.86%     36.86% |         717     18.44%     55.30% |         784     20.16%     75.46% |         954     24.54%    100.00%
system.ruby.L1Cache_Controller.OM.Ack::total         3888                      
system.ruby.L1Cache_Controller.OM.All_acks |       11145      0.13%      0.13% |       58754      0.67%      0.80% |       14112      0.16%      0.96% |     8707731     99.04%    100.00%
system.ruby.L1Cache_Controller.OM.All_acks::total      8791742                      
system.ruby.L1Cache_Controller.IS.Data   |       44144      0.79%      0.79% |       84008      1.51%      2.30% |       42327      0.76%      3.06% |     5403572     96.94%    100.00%
system.ruby.L1Cache_Controller.IS.Data::total      5574051                      
system.ruby.L1Cache_Controller.IS.Exclusive_Data |        5755      0.16%      0.16% |       92032      2.49%      2.64% |        8773      0.24%      2.88% |     3595429     97.12%    100.00%
system.ruby.L1Cache_Controller.IS.Exclusive_Data::total      3701989                      
system.ruby.L1Cache_Controller.SI.Load   |           0      0.00%      0.00% |           2     18.18%     18.18% |           0      0.00%     18.18% |           9     81.82%    100.00%
system.ruby.L1Cache_Controller.SI.Load::total           11                      
system.ruby.L1Cache_Controller.SI.Ifetch |           0      0.00%      0.00% |           8     66.67%     66.67% |           0      0.00%     66.67% |           4     33.33%    100.00%
system.ruby.L1Cache_Controller.SI.Ifetch::total           12                      
system.ruby.L1Cache_Controller.SI.Writeback_Ack |       33479      1.44%      1.44% |       55555      2.38%      3.82% |       32547      1.40%      5.22% |     2208943     94.78%    100.00%
system.ruby.L1Cache_Controller.SI.Writeback_Ack::total      2330524                      
system.ruby.L1Cache_Controller.SI.Writeback_Ack_Data |        5230      0.16%      0.16% |       17167      0.54%      0.70% |        3953      0.12%      0.82% |     3167924     99.18%    100.00%
system.ruby.L1Cache_Controller.SI.Writeback_Ack_Data::total      3194274                      
system.ruby.L1Cache_Controller.OI.Writeback_Ack_Data |         127     12.45%     12.45% |          99      9.71%     22.16% |         216     21.18%     43.33% |         578     56.67%    100.00%
system.ruby.L1Cache_Controller.OI.Writeback_Ack_Data::total         1020                      
system.ruby.L1Cache_Controller.MI.Load   |          10     83.33%     83.33% |           1      8.33%     91.67% |           1      8.33%    100.00% |           0      0.00%    100.00%
system.ruby.L1Cache_Controller.MI.Load::total           12                      
system.ruby.L1Cache_Controller.MI.Store  |           0      0.00%      0.00% |           0      0.00%      0.00% |           0      0.00%      0.00% |         586    100.00%    100.00%
system.ruby.L1Cache_Controller.MI.Store::total          586                      
system.ruby.L1Cache_Controller.MI.Fwd_GETS |           0      0.00%      0.00% |           1    100.00%    100.00% |           0      0.00%    100.00% |           0      0.00%    100.00%
system.ruby.L1Cache_Controller.MI.Fwd_GETS::total            1                      
system.ruby.L1Cache_Controller.MI.Writeback_Ack_Data |        8393      0.07%      0.07% |      143150      1.15%      1.22% |       15095      0.12%      1.34% |    12298958     98.66%    100.00%
system.ruby.L1Cache_Controller.MI.Writeback_Ack_Data::total     12465596                      
system.ruby.L2Cache_Controller.L1_GETS        9276347      0.00%      0.00%
system.ruby.L2Cache_Controller.L1_GETX        8791750      0.00%      0.00%
system.ruby.L2Cache_Controller.L1_PUTO           1019      0.00%      0.00%
system.ruby.L2Cache_Controller.L1_PUTX       12465598      0.00%      0.00%
system.ruby.L2Cache_Controller.L1_PUTS_only      5401986      0.00%      0.00%
system.ruby.L2Cache_Controller.L1_PUTS         122818      0.00%      0.00%
system.ruby.L2Cache_Controller.Fwd_DMA              2      0.00%      0.00%
system.ruby.L2Cache_Controller.Inv                128      0.00%      0.00%
system.ruby.L2Cache_Controller.All_Acks       2713252      0.00%      0.00%
system.ruby.L2Cache_Controller.Data           5931589      0.00%      0.00%
system.ruby.L2Cache_Controller.L1_WBCLEANDATA      3194274      0.00%      0.00%
system.ruby.L2Cache_Controller.L1_WBDIRTYDATA     12466616      0.00%      0.00%
system.ruby.L2Cache_Controller.Writeback_Ack      2697103      0.00%      0.00%
system.ruby.L2Cache_Controller.Unblock        7904575      0.00%      0.00%
system.ruby.L2Cache_Controller.Exclusive_Unblock     12493731      0.00%      0.00%
system.ruby.L2Cache_Controller.DmaAck               2      0.00%      0.00%
system.ruby.L2Cache_Controller.L2_Replacement      5881848      0.00%      0.00%
system.ruby.L2Cache_Controller.NP.L1_GETS      3218337      0.00%      0.00%
system.ruby.L2Cache_Controller.NP.L1_GETX      2674906      0.00%      0.00%
system.ruby.L2Cache_Controller.NP.Inv             128      0.00%      0.00%
system.ruby.L2Cache_Controller.ILS.L1_GETS         7598      0.00%      0.00%
system.ruby.L2Cache_Controller.ILS.L1_GETX        33332      0.00%      0.00%
system.ruby.L2Cache_Controller.ILS.L1_PUTS_only      3185270      0.00%      0.00%
system.ruby.L2Cache_Controller.ILS.L1_PUTS         9004      0.00%      0.00%
system.ruby.L2Cache_Controller.ILX.L1_GETS        21378      0.00%      0.00%
system.ruby.L2Cache_Controller.ILX.L1_GETX         5778      0.00%      0.00%
system.ruby.L2Cache_Controller.ILX.L1_PUTX     12465596      0.00%      0.00%
system.ruby.L2Cache_Controller.ILX.Fwd_DMA            2      0.00%      0.00%
system.ruby.L2Cache_Controller.ILOX.L1_GETS         2754      0.00%      0.00%
system.ruby.L2Cache_Controller.ILOX.L1_GETX          970      0.00%      0.00%
system.ruby.L2Cache_Controller.ILOX.L1_PUTO          341      0.00%      0.00%
system.ruby.L2Cache_Controller.ILOSX.L1_GETS         2898      0.00%      0.00%
system.ruby.L2Cache_Controller.ILOSX.L1_GETX         7579      0.00%      0.00%
system.ruby.L2Cache_Controller.ILOSX.L1_PUTO          678      0.00%      0.00%
system.ruby.L2Cache_Controller.ILOSX.L1_PUTX            1      0.00%      0.00%
system.ruby.L2Cache_Controller.ILOSX.L1_PUTS_only         4091      0.00%      0.00%
system.ruby.L2Cache_Controller.ILOSX.L1_PUTS          969      0.00%      0.00%
system.ruby.L2Cache_Controller.S.L1_GETS      2217056      0.00%      0.00%
system.ruby.L2Cache_Controller.S.L1_GETX         1349      0.00%      0.00%
system.ruby.L2Cache_Controller.S.L2_Replacement      3175444      0.00%      0.00%
system.ruby.L2Cache_Controller.OLSX.L1_GETS         2641      0.00%      0.00%
system.ruby.L2Cache_Controller.OLSX.L1_GETX          529      0.00%      0.00%
system.ruby.L2Cache_Controller.OLSX.L1_PUTS_only          102      0.00%      0.00%
system.ruby.L2Cache_Controller.OLSX.L1_PUTS         1991      0.00%      0.00%
system.ruby.L2Cache_Controller.OLSX.L2_Replacement           22      0.00%      0.00%
system.ruby.L2Cache_Controller.SLS.L1_GETS       113300      0.00%      0.00%
system.ruby.L2Cache_Controller.SLS.L1_GETX         3665      0.00%      0.00%
system.ruby.L2Cache_Controller.SLS.L1_PUTS_only      2212522      0.00%      0.00%
system.ruby.L2Cache_Controller.SLS.L1_PUTS       110849      0.00%      0.00%
system.ruby.L2Cache_Controller.SLS.L2_Replacement         9300      0.00%      0.00%
system.ruby.L2Cache_Controller.M.L1_GETS      3690078      0.00%      0.00%
system.ruby.L2Cache_Controller.M.L1_GETX      6063634      0.00%      0.00%
system.ruby.L2Cache_Controller.M.L2_Replacement      2697082      0.00%      0.00%
system.ruby.L2Cache_Controller.ILOXW.L1_GETS            1      0.00%      0.00%
system.ruby.L2Cache_Controller.ILOXW.L1_WBDIRTYDATA          341      0.00%      0.00%
system.ruby.L2Cache_Controller.ILOXW.Unblock         4091      0.00%      0.00%
system.ruby.L2Cache_Controller.ILOSXW.L1_WBDIRTYDATA          679      0.00%      0.00%
system.ruby.L2Cache_Controller.ILOSXW.Unblock          969      0.00%      0.00%
system.ruby.L2Cache_Controller.SLSW.L1_GETS            3      0.00%      0.00%
system.ruby.L2Cache_Controller.SLSW.L1_PUTS            1      0.00%      0.00%
system.ruby.L2Cache_Controller.SLSW.Unblock       110849      0.00%      0.00%
system.ruby.L2Cache_Controller.ILSW.L1_WBCLEANDATA         9004      0.00%      0.00%
system.ruby.L2Cache_Controller.IW.L1_WBCLEANDATA      3185270      0.00%      0.00%
system.ruby.L2Cache_Controller.SW.L1_GETS            2      0.00%      0.00%
system.ruby.L2Cache_Controller.SW.Unblock      2212522      0.00%      0.00%
system.ruby.L2Cache_Controller.OXW.Unblock          102      0.00%      0.00%
system.ruby.L2Cache_Controller.OLSXW.Unblock         1991      0.00%      0.00%
system.ruby.L2Cache_Controller.ILXW.L1_GETS            1      0.00%      0.00%
system.ruby.L2Cache_Controller.ILXW.L1_WBDIRTYDATA     12465596      0.00%      0.00%
system.ruby.L2Cache_Controller.IFLS.Unblock         7598      0.00%      0.00%
system.ruby.L2Cache_Controller.IFLOX.Unblock         2754      0.00%      0.00%
system.ruby.L2Cache_Controller.IFLOX.Exclusive_Unblock          529      0.00%      0.00%
system.ruby.L2Cache_Controller.IFLOXX.L1_GETS          141      0.00%      0.00%
system.ruby.L2Cache_Controller.IFLOXX.L1_GETX            6      0.00%      0.00%
system.ruby.L2Cache_Controller.IFLOXX.L1_PUTX            1      0.00%      0.00%
system.ruby.L2Cache_Controller.IFLOXX.Unblock         9467      0.00%      0.00%
system.ruby.L2Cache_Controller.IFLOXX.Exclusive_Unblock        18659      0.00%      0.00%
system.ruby.L2Cache_Controller.IFLOSX.Unblock         2898      0.00%      0.00%
system.ruby.L2Cache_Controller.IFLXO.L1_GETS           68      0.00%      0.00%
system.ruby.L2Cache_Controller.IFLXO.Exclusive_Unblock         7579      0.00%      0.00%
system.ruby.L2Cache_Controller.IGS.L1_GETS           86      0.00%      0.00%
system.ruby.L2Cache_Controller.IGS.Data       3218337      0.00%      0.00%
system.ruby.L2Cache_Controller.IGS.Unblock      3218337      0.00%      0.00%
system.ruby.L2Cache_Controller.IGM.Data       2676255      0.00%      0.00%
system.ruby.L2Cache_Controller.IGMLS.Data        36997      0.00%      0.00%
system.ruby.L2Cache_Controller.IGMO.All_Acks      2713252      0.00%      0.00%
system.ruby.L2Cache_Controller.IGMO.Exclusive_Unblock      2713252      0.00%      0.00%
system.ruby.L2Cache_Controller.MM.Exclusive_Unblock      6063634      0.00%      0.00%
system.ruby.L2Cache_Controller.SS.L1_GETS            1      0.00%      0.00%
system.ruby.L2Cache_Controller.SS.Unblock      2217056      0.00%      0.00%
system.ruby.L2Cache_Controller.OO.Exclusive_Unblock      3690078      0.00%      0.00%
system.ruby.L2Cache_Controller.OLSXS.Unblock         2641      0.00%      0.00%
system.ruby.L2Cache_Controller.SLSS.L1_GETS            4      0.00%      0.00%
system.ruby.L2Cache_Controller.SLSS.L1_PUTS_only            1      0.00%      0.00%
system.ruby.L2Cache_Controller.SLSS.L1_PUTS            4      0.00%      0.00%
system.ruby.L2Cache_Controller.SLSS.Unblock       113300      0.00%      0.00%
system.ruby.L2Cache_Controller.MI.L1_GETX            2      0.00%      0.00%
system.ruby.L2Cache_Controller.MI.Writeback_Ack      2697081      0.00%      0.00%
system.ruby.L2Cache_Controller.OLSI.Writeback_Ack           22      0.00%      0.00%
system.ruby.L2Cache_Controller.ILXD.DmaAck            2      0.00%      0.00%

---------- End Simulation Statistics   ----------
