
---------- Begin Simulation Statistics ----------
sim_seconds                                  3.593253                       # Number of seconds simulated
sim_ticks                                3593252840000                       # Number of ticks simulated
final_tick                               54831796497501                       # Number of ticks from beginning of simulation (restored from checkpoints and never reset)
sim_freq                                 1000000000000                       # Frequency of simulated ticks
host_inst_rate                                 128764                       # Simulator instruction rate (inst/s)
host_op_rate                                   219290                       # Simulator op (including micro ops) rate (op/s)
host_tick_rate                              228973450                       # Simulator tick rate (ticks/s)
host_mem_usage                                1869456                       # Number of bytes of host memory used
host_seconds                                 15692.88                       # Real time elapsed on the host
sim_insts                                  2020684355                       # Number of instructions simulated
sim_ops                                    3441297647                       # Number of ops (including micro ops) simulated
system.voltage_domain.voltage                       1                       # Voltage in Volts
system.clk_domain.clock                          1000                       # Clock period in ticks
system.mem_ctrls0.bytes_read::ruby.dir_cntrl0       583360                       # Number of bytes read from this memory
system.mem_ctrls0.bytes_read::total            583360                       # Number of bytes read from this memory
system.mem_ctrls0.bytes_written::ruby.dir_cntrl0        98112                       # Number of bytes written to this memory
system.mem_ctrls0.bytes_written::total          98112                       # Number of bytes written to this memory
system.mem_ctrls0.num_reads::ruby.dir_cntrl0         9115                       # Number of read requests responded to by this memory
system.mem_ctrls0.num_reads::total               9115                       # Number of read requests responded to by this memory
system.mem_ctrls0.num_writes::ruby.dir_cntrl0         1533                       # Number of write requests responded to by this memory
system.mem_ctrls0.num_writes::total              1533                       # Number of write requests responded to by this memory
system.mem_ctrls0.bw_read::ruby.dir_cntrl0       162349                       # Total read bandwidth from this memory (bytes/s)
system.mem_ctrls0.bw_read::total               162349                       # Total read bandwidth from this memory (bytes/s)
system.mem_ctrls0.bw_write::ruby.dir_cntrl0        27305                       # Write bandwidth from this memory (bytes/s)
system.mem_ctrls0.bw_write::total               27305                       # Write bandwidth from this memory (bytes/s)
system.mem_ctrls0.bw_total::ruby.dir_cntrl0       189653                       # Total bandwidth to/from this memory (bytes/s)
system.mem_ctrls0.bw_total::total              189653                       # Total bandwidth to/from this memory (bytes/s)
system.mem_ctrls0.readReqs                       9115                       # Number of read requests accepted
system.mem_ctrls0.writeReqs                      1533                       # Number of write requests accepted
system.mem_ctrls0.readBursts                     9115                       # Number of DRAM read bursts, including those serviced by the write queue
system.mem_ctrls0.writeBursts                    1533                       # Number of DRAM write bursts, including those merged in the write queue
system.mem_ctrls0.bytesReadDRAM                583296                       # Total number of bytes read from DRAM
system.mem_ctrls0.bytesReadWrQ                     64                       # Total number of bytes read from write queue
system.mem_ctrls0.bytesWritten                  96192                       # Total number of bytes written to DRAM
system.mem_ctrls0.bytesReadSys                 583360                       # Total read bytes from the system interface side
system.mem_ctrls0.bytesWrittenSys               98112                       # Total written bytes from the system interface side
system.mem_ctrls0.servicedByWrQ                     1                       # Number of DRAM read bursts serviced by the write queue
system.mem_ctrls0.mergedWrBursts                    0                       # Number of DRAM write bursts merged with an existing one
system.mem_ctrls0.neitherReadNorWriteReqs            0                       # Number of requests that are neither read nor write
system.mem_ctrls0.perBankRdBursts::0              817                       # Per bank write bursts
system.mem_ctrls0.perBankRdBursts::1              639                       # Per bank write bursts
system.mem_ctrls0.perBankRdBursts::2              466                       # Per bank write bursts
system.mem_ctrls0.perBankRdBursts::3              514                       # Per bank write bursts
system.mem_ctrls0.perBankRdBursts::4              529                       # Per bank write bursts
system.mem_ctrls0.perBankRdBursts::5              631                       # Per bank write bursts
system.mem_ctrls0.perBankRdBursts::6              501                       # Per bank write bursts
system.mem_ctrls0.perBankRdBursts::7              776                       # Per bank write bursts
system.mem_ctrls0.perBankRdBursts::8              425                       # Per bank write bursts
system.mem_ctrls0.perBankRdBursts::9              643                       # Per bank write bursts
system.mem_ctrls0.perBankRdBursts::10             554                       # Per bank write bursts
system.mem_ctrls0.perBankRdBursts::11             444                       # Per bank write bursts
system.mem_ctrls0.perBankRdBursts::12             557                       # Per bank write bursts
system.mem_ctrls0.perBankRdBursts::13             469                       # Per bank write bursts
system.mem_ctrls0.perBankRdBursts::14             509                       # Per bank write bursts
system.mem_ctrls0.perBankRdBursts::15             640                       # Per bank write bursts
system.mem_ctrls0.perBankWrBursts::0              130                       # Per bank write bursts
system.mem_ctrls0.perBankWrBursts::1              133                       # Per bank write bursts
system.mem_ctrls0.perBankWrBursts::2              225                       # Per bank write bursts
system.mem_ctrls0.perBankWrBursts::3               64                       # Per bank write bursts
system.mem_ctrls0.perBankWrBursts::4                0                       # Per bank write bursts
system.mem_ctrls0.perBankWrBursts::5                1                       # Per bank write bursts
system.mem_ctrls0.perBankWrBursts::6               64                       # Per bank write bursts
system.mem_ctrls0.perBankWrBursts::7               35                       # Per bank write bursts
system.mem_ctrls0.perBankWrBursts::8               96                       # Per bank write bursts
system.mem_ctrls0.perBankWrBursts::9              128                       # Per bank write bursts
system.mem_ctrls0.perBankWrBursts::10              97                       # Per bank write bursts
system.mem_ctrls0.perBankWrBursts::11             128                       # Per bank write bursts
system.mem_ctrls0.perBankWrBursts::12             129                       # Per bank write bursts
system.mem_ctrls0.perBankWrBursts::13              96                       # Per bank write bursts
system.mem_ctrls0.perBankWrBursts::14              19                       # Per bank write bursts
system.mem_ctrls0.perBankWrBursts::15             158                       # Per bank write bursts
system.mem_ctrls0.numRdRetry                        0                       # Number of times read queue was full causing retry
system.mem_ctrls0.numWrRetry                        0                       # Number of times write queue was full causing retry
system.mem_ctrls0.totGap                 3593252645000                       # Total gap between requests
system.mem_ctrls0.readPktSize::0                    0                       # Read request sizes (log2)
system.mem_ctrls0.readPktSize::1                    0                       # Read request sizes (log2)
system.mem_ctrls0.readPktSize::2                    0                       # Read request sizes (log2)
system.mem_ctrls0.readPktSize::3                    0                       # Read request sizes (log2)
system.mem_ctrls0.readPktSize::4                    0                       # Read request sizes (log2)
system.mem_ctrls0.readPktSize::5                    0                       # Read request sizes (log2)
system.mem_ctrls0.readPktSize::6                 9115                       # Read request sizes (log2)
system.mem_ctrls0.writePktSize::0                   0                       # Write request sizes (log2)
system.mem_ctrls0.writePktSize::1                   0                       # Write request sizes (log2)
system.mem_ctrls0.writePktSize::2                   0                       # Write request sizes (log2)
system.mem_ctrls0.writePktSize::3                   0                       # Write request sizes (log2)
system.mem_ctrls0.writePktSize::4                   0                       # Write request sizes (log2)
system.mem_ctrls0.writePktSize::5                   0                       # Write request sizes (log2)
system.mem_ctrls0.writePktSize::6                1533                       # Write request sizes (log2)
system.mem_ctrls0.rdQLenPdf::0                   9078                       # What read queue length does an incoming req see
system.mem_ctrls0.rdQLenPdf::1                     36                       # What read queue length does an incoming req see
system.mem_ctrls0.rdQLenPdf::2                      0                       # What read queue length does an incoming req see
system.mem_ctrls0.rdQLenPdf::3                      0                       # What read queue length does an incoming req see
system.mem_ctrls0.rdQLenPdf::4                      0                       # What read queue length does an incoming req see
system.mem_ctrls0.rdQLenPdf::5                      0                       # What read queue length does an incoming req see
system.mem_ctrls0.rdQLenPdf::6                      0                       # What read queue length does an incoming req see
system.mem_ctrls0.rdQLenPdf::7                      0                       # What read queue length does an incoming req see
system.mem_ctrls0.rdQLenPdf::8                      0                       # What read queue length does an incoming req see
system.mem_ctrls0.rdQLenPdf::9                      0                       # What read queue length does an incoming req see
system.mem_ctrls0.rdQLenPdf::10                     0                       # What read queue length does an incoming req see
system.mem_ctrls0.rdQLenPdf::11                     0                       # What read queue length does an incoming req see
system.mem_ctrls0.rdQLenPdf::12                     0                       # What read queue length does an incoming req see
system.mem_ctrls0.rdQLenPdf::13                     0                       # What read queue length does an incoming req see
system.mem_ctrls0.rdQLenPdf::14                     0                       # What read queue length does an incoming req see
system.mem_ctrls0.rdQLenPdf::15                     0                       # What read queue length does an incoming req see
system.mem_ctrls0.rdQLenPdf::16                     0                       # What read queue length does an incoming req see
system.mem_ctrls0.rdQLenPdf::17                     0                       # What read queue length does an incoming req see
system.mem_ctrls0.rdQLenPdf::18                     0                       # What read queue length does an incoming req see
system.mem_ctrls0.rdQLenPdf::19                     0                       # What read queue length does an incoming req see
system.mem_ctrls0.rdQLenPdf::20                     0                       # What read queue length does an incoming req see
system.mem_ctrls0.rdQLenPdf::21                     0                       # What read queue length does an incoming req see
system.mem_ctrls0.rdQLenPdf::22                     0                       # What read queue length does an incoming req see
system.mem_ctrls0.rdQLenPdf::23                     0                       # What read queue length does an incoming req see
system.mem_ctrls0.rdQLenPdf::24                     0                       # What read queue length does an incoming req see
system.mem_ctrls0.rdQLenPdf::25                     0                       # What read queue length does an incoming req see
system.mem_ctrls0.rdQLenPdf::26                     0                       # What read queue length does an incoming req see
system.mem_ctrls0.rdQLenPdf::27                     0                       # What read queue length does an incoming req see
system.mem_ctrls0.rdQLenPdf::28                     0                       # What read queue length does an incoming req see
system.mem_ctrls0.rdQLenPdf::29                     0                       # What read queue length does an incoming req see
system.mem_ctrls0.rdQLenPdf::30                     0                       # What read queue length does an incoming req see
system.mem_ctrls0.rdQLenPdf::31                     0                       # What read queue length does an incoming req see
system.mem_ctrls0.wrQLenPdf::0                      0                       # What write queue length does an incoming req see
system.mem_ctrls0.wrQLenPdf::1                      1                       # What write queue length does an incoming req see
system.mem_ctrls0.wrQLenPdf::2                      1                       # What write queue length does an incoming req see
system.mem_ctrls0.wrQLenPdf::3                      1                       # What write queue length does an incoming req see
system.mem_ctrls0.wrQLenPdf::4                      1                       # What write queue length does an incoming req see
system.mem_ctrls0.wrQLenPdf::5                      1                       # What write queue length does an incoming req see
system.mem_ctrls0.wrQLenPdf::6                      1                       # What write queue length does an incoming req see
system.mem_ctrls0.wrQLenPdf::7                      1                       # What write queue length does an incoming req see
system.mem_ctrls0.wrQLenPdf::8                      1                       # What write queue length does an incoming req see
system.mem_ctrls0.wrQLenPdf::9                      1                       # What write queue length does an incoming req see
system.mem_ctrls0.wrQLenPdf::10                     1                       # What write queue length does an incoming req see
system.mem_ctrls0.wrQLenPdf::11                     1                       # What write queue length does an incoming req see
system.mem_ctrls0.wrQLenPdf::12                     1                       # What write queue length does an incoming req see
system.mem_ctrls0.wrQLenPdf::13                     1                       # What write queue length does an incoming req see
system.mem_ctrls0.wrQLenPdf::14                     1                       # What write queue length does an incoming req see
system.mem_ctrls0.wrQLenPdf::15                    76                       # What write queue length does an incoming req see
system.mem_ctrls0.wrQLenPdf::16                    96                       # What write queue length does an incoming req see
system.mem_ctrls0.wrQLenPdf::17                    86                       # What write queue length does an incoming req see
system.mem_ctrls0.wrQLenPdf::18                    89                       # What write queue length does an incoming req see
system.mem_ctrls0.wrQLenPdf::19                    85                       # What write queue length does an incoming req see
system.mem_ctrls0.wrQLenPdf::20                    84                       # What write queue length does an incoming req see
system.mem_ctrls0.wrQLenPdf::21                    86                       # What write queue length does an incoming req see
system.mem_ctrls0.wrQLenPdf::22                    84                       # What write queue length does an incoming req see
system.mem_ctrls0.wrQLenPdf::23                    84                       # What write queue length does an incoming req see
system.mem_ctrls0.wrQLenPdf::24                    86                       # What write queue length does an incoming req see
system.mem_ctrls0.wrQLenPdf::25                    89                       # What write queue length does an incoming req see
system.mem_ctrls0.wrQLenPdf::26                    82                       # What write queue length does an incoming req see
system.mem_ctrls0.wrQLenPdf::27                    82                       # What write queue length does an incoming req see
system.mem_ctrls0.wrQLenPdf::28                    82                       # What write queue length does an incoming req see
system.mem_ctrls0.wrQLenPdf::29                    82                       # What write queue length does an incoming req see
system.mem_ctrls0.wrQLenPdf::30                    82                       # What write queue length does an incoming req see
system.mem_ctrls0.wrQLenPdf::31                    81                       # What write queue length does an incoming req see
system.mem_ctrls0.wrQLenPdf::32                    81                       # What write queue length does an incoming req see
system.mem_ctrls0.wrQLenPdf::33                     1                       # What write queue length does an incoming req see
system.mem_ctrls0.wrQLenPdf::34                     1                       # What write queue length does an incoming req see
system.mem_ctrls0.wrQLenPdf::35                     0                       # What write queue length does an incoming req see
system.mem_ctrls0.wrQLenPdf::36                     0                       # What write queue length does an incoming req see
system.mem_ctrls0.wrQLenPdf::37                     0                       # What write queue length does an incoming req see
system.mem_ctrls0.wrQLenPdf::38                     0                       # What write queue length does an incoming req see
system.mem_ctrls0.wrQLenPdf::39                     0                       # What write queue length does an incoming req see
system.mem_ctrls0.wrQLenPdf::40                     0                       # What write queue length does an incoming req see
system.mem_ctrls0.wrQLenPdf::41                     0                       # What write queue length does an incoming req see
system.mem_ctrls0.wrQLenPdf::42                     0                       # What write queue length does an incoming req see
system.mem_ctrls0.wrQLenPdf::43                     0                       # What write queue length does an incoming req see
system.mem_ctrls0.wrQLenPdf::44                     0                       # What write queue length does an incoming req see
system.mem_ctrls0.wrQLenPdf::45                     0                       # What write queue length does an incoming req see
system.mem_ctrls0.wrQLenPdf::46                     0                       # What write queue length does an incoming req see
system.mem_ctrls0.wrQLenPdf::47                     0                       # What write queue length does an incoming req see
system.mem_ctrls0.wrQLenPdf::48                     0                       # What write queue length does an incoming req see
system.mem_ctrls0.wrQLenPdf::49                     0                       # What write queue length does an incoming req see
system.mem_ctrls0.wrQLenPdf::50                     0                       # What write queue length does an incoming req see
system.mem_ctrls0.wrQLenPdf::51                     0                       # What write queue length does an incoming req see
system.mem_ctrls0.wrQLenPdf::52                     0                       # What write queue length does an incoming req see
system.mem_ctrls0.wrQLenPdf::53                     0                       # What write queue length does an incoming req see
system.mem_ctrls0.wrQLenPdf::54                     0                       # What write queue length does an incoming req see
system.mem_ctrls0.wrQLenPdf::55                     0                       # What write queue length does an incoming req see
system.mem_ctrls0.wrQLenPdf::56                     0                       # What write queue length does an incoming req see
system.mem_ctrls0.wrQLenPdf::57                     0                       # What write queue length does an incoming req see
system.mem_ctrls0.wrQLenPdf::58                     0                       # What write queue length does an incoming req see
system.mem_ctrls0.wrQLenPdf::59                     0                       # What write queue length does an incoming req see
system.mem_ctrls0.wrQLenPdf::60                     0                       # What write queue length does an incoming req see
system.mem_ctrls0.wrQLenPdf::61                     0                       # What write queue length does an incoming req see
system.mem_ctrls0.wrQLenPdf::62                     0                       # What write queue length does an incoming req see
system.mem_ctrls0.wrQLenPdf::63                     0                       # What write queue length does an incoming req see
system.mem_ctrls0.bytesPerActivate::samples         2794                       # Bytes accessed per row activation
system.mem_ctrls0.bytesPerActivate::mean   243.287044                       # Bytes accessed per row activation
system.mem_ctrls0.bytesPerActivate::gmean   134.803803                       # Bytes accessed per row activation
system.mem_ctrls0.bytesPerActivate::stdev   314.815441                       # Bytes accessed per row activation
system.mem_ctrls0.bytesPerActivate::0-127         1490     53.33%     53.33% # Bytes accessed per row activation
system.mem_ctrls0.bytesPerActivate::128-255          605     21.65%     74.98% # Bytes accessed per row activation
system.mem_ctrls0.bytesPerActivate::256-383          174      6.23%     81.21% # Bytes accessed per row activation
system.mem_ctrls0.bytesPerActivate::384-511           72      2.58%     83.79% # Bytes accessed per row activation
system.mem_ctrls0.bytesPerActivate::512-639           46      1.65%     85.43% # Bytes accessed per row activation
system.mem_ctrls0.bytesPerActivate::640-767           41      1.47%     86.90% # Bytes accessed per row activation
system.mem_ctrls0.bytesPerActivate::768-895           33      1.18%     88.08% # Bytes accessed per row activation
system.mem_ctrls0.bytesPerActivate::896-1023           31      1.11%     89.19% # Bytes accessed per row activation
system.mem_ctrls0.bytesPerActivate::1024-1151          302     10.81%    100.00% # Bytes accessed per row activation
system.mem_ctrls0.bytesPerActivate::total         2794                       # Bytes accessed per row activation
system.mem_ctrls0.rdPerTurnAround::samples           81                       # Reads before turning the bus around for writes
system.mem_ctrls0.rdPerTurnAround::mean    206.333333                       # Reads before turning the bus around for writes
system.mem_ctrls0.rdPerTurnAround::stdev  1062.307300                       # Reads before turning the bus around for writes
system.mem_ctrls0.rdPerTurnAround::0-511           76     93.83%     93.83% # Reads before turning the bus around for writes
system.mem_ctrls0.rdPerTurnAround::512-1023            1      1.23%     95.06% # Reads before turning the bus around for writes
system.mem_ctrls0.rdPerTurnAround::1024-1535            1      1.23%     96.30% # Reads before turning the bus around for writes
system.mem_ctrls0.rdPerTurnAround::1536-2047            1      1.23%     97.53% # Reads before turning the bus around for writes
system.mem_ctrls0.rdPerTurnAround::4096-4607            1      1.23%     98.77% # Reads before turning the bus around for writes
system.mem_ctrls0.rdPerTurnAround::8192-8703            1      1.23%    100.00% # Reads before turning the bus around for writes
system.mem_ctrls0.rdPerTurnAround::total           81                       # Reads before turning the bus around for writes
system.mem_ctrls0.wrPerTurnAround::samples           81                       # Writes before turning the bus around for reads
system.mem_ctrls0.wrPerTurnAround::mean     18.555556                       # Writes before turning the bus around for reads
system.mem_ctrls0.wrPerTurnAround::gmean    18.536468                       # Writes before turning the bus around for reads
system.mem_ctrls0.wrPerTurnAround::stdev     0.836660                       # Writes before turning the bus around for reads
system.mem_ctrls0.wrPerTurnAround::16               4      4.94%      4.94% # Writes before turning the bus around for reads
system.mem_ctrls0.wrPerTurnAround::18              27     33.33%     38.27% # Writes before turning the bus around for reads
system.mem_ctrls0.wrPerTurnAround::19              49     60.49%     98.77% # Writes before turning the bus around for reads
system.mem_ctrls0.wrPerTurnAround::22               1      1.23%    100.00% # Writes before turning the bus around for reads
system.mem_ctrls0.wrPerTurnAround::total           81                       # Writes before turning the bus around for reads
system.mem_ctrls0.totQLat                    71195500                       # Total ticks spent queuing
system.mem_ctrls0.totMemAccLat              242083000                       # Total ticks spent from burst creation until serviced by the DRAM
system.mem_ctrls0.totBusLat                  45570000                       # Total ticks spent in databus transfers
system.mem_ctrls0.avgQLat                     7811.66                       # Average queueing delay per DRAM burst
system.mem_ctrls0.avgBusLat                   5000.00                       # Average bus latency per DRAM burst
system.mem_ctrls0.avgMemAccLat               26561.66                       # Average memory access latency per DRAM burst
system.mem_ctrls0.avgRdBW                        0.16                       # Average DRAM read bandwidth in MiByte/s
system.mem_ctrls0.avgWrBW                        0.03                       # Average achieved write bandwidth in MiByte/s
system.mem_ctrls0.avgRdBWSys                     0.16                       # Average system read bandwidth in MiByte/s
system.mem_ctrls0.avgWrBWSys                     0.03                       # Average system write bandwidth in MiByte/s
system.mem_ctrls0.peakBW                     12800.00                       # Theoretical peak bandwidth in MiByte/s
system.mem_ctrls0.busUtil                        0.00                       # Data bus utilization in percentage
system.mem_ctrls0.busUtilRead                    0.00                       # Data bus utilization in percentage for reads
system.mem_ctrls0.busUtilWrite                   0.00                       # Data bus utilization in percentage for writes
system.mem_ctrls0.avgRdQLen                      1.00                       # Average read queue length when enqueuing
system.mem_ctrls0.avgWrQLen                     27.30                       # Average write queue length when enqueuing
system.mem_ctrls0.readRowHits                    6444                       # Number of row buffer hits during reads
system.mem_ctrls0.writeRowHits                   1382                       # Number of row buffer hits during writes
system.mem_ctrls0.readRowHitRate                70.70                       # Row buffer hit rate for reads
system.mem_ctrls0.writeRowHitRate               90.15                       # Row buffer hit rate for writes
system.mem_ctrls0.avgGap                 337457986.95                       # Average gap between requests
system.mem_ctrls0.pageHitRate                   73.50                       # Row buffer hit rate, read and write combined
system.mem_ctrls0_0.actEnergy                18695880                       # Energy for activate commands per rank (pJ)
system.mem_ctrls0_0.preEnergy                10201125                       # Energy for precharge commands per rank (pJ)
system.mem_ctrls0_0.readEnergy               65449800                       # Energy for read commands per rank (pJ)
system.mem_ctrls0_0.writeEnergy               4224960                       # Energy for write commands per rank (pJ)
system.mem_ctrls0_0.refreshEnergy        234913018080                       # Energy for refresh commands per rank (pJ)
system.mem_ctrls0_0.actBackEnergy         80398358640                       # Energy for active background per rank (pJ)
system.mem_ctrls0_0.preBackEnergy        2087440696500                       # Energy for precharge background per rank (pJ)
system.mem_ctrls0_0.totalEnergy          2402850644985                       # Total energy per rank (pJ)
system.mem_ctrls0_0.averagePower           668.087761                       # Core power per rank (mW)
system.mem_ctrls0_0.memoryStateTime::IDLE 3470926887250                       # Time in different power states
system.mem_ctrls0_0.memoryStateTime::REF 119986620000                       # Time in different power states
system.mem_ctrls0_0.memoryStateTime::PRE_PDN            0                       # Time in different power states
system.mem_ctrls0_0.memoryStateTime::ACT   2346078750                       # Time in different power states
system.mem_ctrls0_0.memoryStateTime::ACT_PDN            0                       # Time in different power states
system.mem_ctrls0_1.actEnergy                21727440                       # Energy for activate commands per rank (pJ)
system.mem_ctrls0_1.preEnergy                11855250                       # Energy for precharge commands per rank (pJ)
system.mem_ctrls0_1.readEnergy               65691600                       # Energy for read commands per rank (pJ)
system.mem_ctrls0_1.writeEnergy               5514480                       # Energy for write commands per rank (pJ)
system.mem_ctrls0_1.refreshEnergy        234913018080                       # Energy for refresh commands per rank (pJ)
system.mem_ctrls0_1.actBackEnergy         80839790010                       # Energy for active background per rank (pJ)
system.mem_ctrls0_1.preBackEnergy        2087053476000                       # Energy for precharge background per rank (pJ)
system.mem_ctrls0_1.totalEnergy          2402911072860                       # Total energy per rank (pJ)
system.mem_ctrls0_1.averagePower           668.104562                       # Core power per rank (mW)
system.mem_ctrls0_1.memoryStateTime::IDLE 3470683466750                       # Time in different power states
system.mem_ctrls0_1.memoryStateTime::REF 119986620000                       # Time in different power states
system.mem_ctrls0_1.memoryStateTime::PRE_PDN            0                       # Time in different power states
system.mem_ctrls0_1.memoryStateTime::ACT   2582109000                       # Time in different power states
system.mem_ctrls0_1.memoryStateTime::ACT_PDN            0                       # Time in different power states
system.mem_ctrls1.bytes_read::ruby.dir_cntrl1       550208                       # Number of bytes read from this memory
system.mem_ctrls1.bytes_read::total            550208                       # Number of bytes read from this memory
system.mem_ctrls1.bytes_written::ruby.dir_cntrl1        96000                       # Number of bytes written to this memory
system.mem_ctrls1.bytes_written::total          96000                       # Number of bytes written to this memory
system.mem_ctrls1.num_reads::ruby.dir_cntrl1         8597                       # Number of read requests responded to by this memory
system.mem_ctrls1.num_reads::total               8597                       # Number of read requests responded to by this memory
system.mem_ctrls1.num_writes::ruby.dir_cntrl1         1500                       # Number of write requests responded to by this memory
system.mem_ctrls1.num_writes::total              1500                       # Number of write requests responded to by this memory
system.mem_ctrls1.bw_read::ruby.dir_cntrl1       153123                       # Total read bandwidth from this memory (bytes/s)
system.mem_ctrls1.bw_read::total               153123                       # Total read bandwidth from this memory (bytes/s)
system.mem_ctrls1.bw_write::ruby.dir_cntrl1        26717                       # Write bandwidth from this memory (bytes/s)
system.mem_ctrls1.bw_write::total               26717                       # Write bandwidth from this memory (bytes/s)
system.mem_ctrls1.bw_total::ruby.dir_cntrl1       179839                       # Total bandwidth to/from this memory (bytes/s)
system.mem_ctrls1.bw_total::total              179839                       # Total bandwidth to/from this memory (bytes/s)
system.mem_ctrls1.readReqs                       8597                       # Number of read requests accepted
system.mem_ctrls1.writeReqs                      1500                       # Number of write requests accepted
system.mem_ctrls1.readBursts                     8597                       # Number of DRAM read bursts, including those serviced by the write queue
system.mem_ctrls1.writeBursts                    1500                       # Number of DRAM write bursts, including those merged in the write queue
system.mem_ctrls1.bytesReadDRAM                550144                       # Total number of bytes read from DRAM
system.mem_ctrls1.bytesReadWrQ                     64                       # Total number of bytes read from write queue
system.mem_ctrls1.bytesWritten                  94976                       # Total number of bytes written to DRAM
system.mem_ctrls1.bytesReadSys                 550208                       # Total read bytes from the system interface side
system.mem_ctrls1.bytesWrittenSys               96000                       # Total written bytes from the system interface side
system.mem_ctrls1.servicedByWrQ                     1                       # Number of DRAM read bursts serviced by the write queue
system.mem_ctrls1.mergedWrBursts                    1                       # Number of DRAM write bursts merged with an existing one
system.mem_ctrls1.neitherReadNorWriteReqs            0                       # Number of requests that are neither read nor write
system.mem_ctrls1.perBankRdBursts::0              745                       # Per bank write bursts
system.mem_ctrls1.perBankRdBursts::1              612                       # Per bank write bursts
system.mem_ctrls1.perBankRdBursts::2              415                       # Per bank write bursts
system.mem_ctrls1.perBankRdBursts::3              505                       # Per bank write bursts
system.mem_ctrls1.perBankRdBursts::4              516                       # Per bank write bursts
system.mem_ctrls1.perBankRdBursts::5              619                       # Per bank write bursts
system.mem_ctrls1.perBankRdBursts::6              473                       # Per bank write bursts
system.mem_ctrls1.perBankRdBursts::7              774                       # Per bank write bursts
system.mem_ctrls1.perBankRdBursts::8              411                       # Per bank write bursts
system.mem_ctrls1.perBankRdBursts::9              632                       # Per bank write bursts
system.mem_ctrls1.perBankRdBursts::10             502                       # Per bank write bursts
system.mem_ctrls1.perBankRdBursts::11             403                       # Per bank write bursts
system.mem_ctrls1.perBankRdBursts::12             508                       # Per bank write bursts
system.mem_ctrls1.perBankRdBursts::13             416                       # Per bank write bursts
system.mem_ctrls1.perBankRdBursts::14             480                       # Per bank write bursts
system.mem_ctrls1.perBankRdBursts::15             585                       # Per bank write bursts
system.mem_ctrls1.perBankWrBursts::0              128                       # Per bank write bursts
system.mem_ctrls1.perBankWrBursts::1              128                       # Per bank write bursts
system.mem_ctrls1.perBankWrBursts::2              224                       # Per bank write bursts
system.mem_ctrls1.perBankWrBursts::3               64                       # Per bank write bursts
system.mem_ctrls1.perBankWrBursts::4                0                       # Per bank write bursts
system.mem_ctrls1.perBankWrBursts::5                0                       # Per bank write bursts
system.mem_ctrls1.perBankWrBursts::6               64                       # Per bank write bursts
system.mem_ctrls1.perBankWrBursts::7               32                       # Per bank write bursts
system.mem_ctrls1.perBankWrBursts::8               96                       # Per bank write bursts
system.mem_ctrls1.perBankWrBursts::9              128                       # Per bank write bursts
system.mem_ctrls1.perBankWrBursts::10              97                       # Per bank write bursts
system.mem_ctrls1.perBankWrBursts::11             128                       # Per bank write bursts
system.mem_ctrls1.perBankWrBursts::12             129                       # Per bank write bursts
system.mem_ctrls1.perBankWrBursts::13              96                       # Per bank write bursts
system.mem_ctrls1.perBankWrBursts::14              10                       # Per bank write bursts
system.mem_ctrls1.perBankWrBursts::15             160                       # Per bank write bursts
system.mem_ctrls1.numRdRetry                        0                       # Number of times read queue was full causing retry
system.mem_ctrls1.numWrRetry                        0                       # Number of times write queue was full causing retry
system.mem_ctrls1.totGap                 3593252941000                       # Total gap between requests
system.mem_ctrls1.readPktSize::0                    0                       # Read request sizes (log2)
system.mem_ctrls1.readPktSize::1                    0                       # Read request sizes (log2)
system.mem_ctrls1.readPktSize::2                    0                       # Read request sizes (log2)
system.mem_ctrls1.readPktSize::3                    0                       # Read request sizes (log2)
system.mem_ctrls1.readPktSize::4                    0                       # Read request sizes (log2)
system.mem_ctrls1.readPktSize::5                    0                       # Read request sizes (log2)
system.mem_ctrls1.readPktSize::6                 8597                       # Read request sizes (log2)
system.mem_ctrls1.writePktSize::0                   0                       # Write request sizes (log2)
system.mem_ctrls1.writePktSize::1                   0                       # Write request sizes (log2)
system.mem_ctrls1.writePktSize::2                   0                       # Write request sizes (log2)
system.mem_ctrls1.writePktSize::3                   0                       # Write request sizes (log2)
system.mem_ctrls1.writePktSize::4                   0                       # Write request sizes (log2)
system.mem_ctrls1.writePktSize::5                   0                       # Write request sizes (log2)
system.mem_ctrls1.writePktSize::6                1500                       # Write request sizes (log2)
system.mem_ctrls1.rdQLenPdf::0                   8561                       # What read queue length does an incoming req see
system.mem_ctrls1.rdQLenPdf::1                     35                       # What read queue length does an incoming req see
system.mem_ctrls1.rdQLenPdf::2                      0                       # What read queue length does an incoming req see
system.mem_ctrls1.rdQLenPdf::3                      0                       # What read queue length does an incoming req see
system.mem_ctrls1.rdQLenPdf::4                      0                       # What read queue length does an incoming req see
system.mem_ctrls1.rdQLenPdf::5                      0                       # What read queue length does an incoming req see
system.mem_ctrls1.rdQLenPdf::6                      0                       # What read queue length does an incoming req see
system.mem_ctrls1.rdQLenPdf::7                      0                       # What read queue length does an incoming req see
system.mem_ctrls1.rdQLenPdf::8                      0                       # What read queue length does an incoming req see
system.mem_ctrls1.rdQLenPdf::9                      0                       # What read queue length does an incoming req see
system.mem_ctrls1.rdQLenPdf::10                     0                       # What read queue length does an incoming req see
system.mem_ctrls1.rdQLenPdf::11                     0                       # What read queue length does an incoming req see
system.mem_ctrls1.rdQLenPdf::12                     0                       # What read queue length does an incoming req see
system.mem_ctrls1.rdQLenPdf::13                     0                       # What read queue length does an incoming req see
system.mem_ctrls1.rdQLenPdf::14                     0                       # What read queue length does an incoming req see
system.mem_ctrls1.rdQLenPdf::15                     0                       # What read queue length does an incoming req see
system.mem_ctrls1.rdQLenPdf::16                     0                       # What read queue length does an incoming req see
system.mem_ctrls1.rdQLenPdf::17                     0                       # What read queue length does an incoming req see
system.mem_ctrls1.rdQLenPdf::18                     0                       # What read queue length does an incoming req see
system.mem_ctrls1.rdQLenPdf::19                     0                       # What read queue length does an incoming req see
system.mem_ctrls1.rdQLenPdf::20                     0                       # What read queue length does an incoming req see
system.mem_ctrls1.rdQLenPdf::21                     0                       # What read queue length does an incoming req see
system.mem_ctrls1.rdQLenPdf::22                     0                       # What read queue length does an incoming req see
system.mem_ctrls1.rdQLenPdf::23                     0                       # What read queue length does an incoming req see
system.mem_ctrls1.rdQLenPdf::24                     0                       # What read queue length does an incoming req see
system.mem_ctrls1.rdQLenPdf::25                     0                       # What read queue length does an incoming req see
system.mem_ctrls1.rdQLenPdf::26                     0                       # What read queue length does an incoming req see
system.mem_ctrls1.rdQLenPdf::27                     0                       # What read queue length does an incoming req see
system.mem_ctrls1.rdQLenPdf::28                     0                       # What read queue length does an incoming req see
system.mem_ctrls1.rdQLenPdf::29                     0                       # What read queue length does an incoming req see
system.mem_ctrls1.rdQLenPdf::30                     0                       # What read queue length does an incoming req see
system.mem_ctrls1.rdQLenPdf::31                     0                       # What read queue length does an incoming req see
system.mem_ctrls1.wrQLenPdf::0                      1                       # What write queue length does an incoming req see
system.mem_ctrls1.wrQLenPdf::1                      1                       # What write queue length does an incoming req see
system.mem_ctrls1.wrQLenPdf::2                      1                       # What write queue length does an incoming req see
system.mem_ctrls1.wrQLenPdf::3                      1                       # What write queue length does an incoming req see
system.mem_ctrls1.wrQLenPdf::4                      1                       # What write queue length does an incoming req see
system.mem_ctrls1.wrQLenPdf::5                      1                       # What write queue length does an incoming req see
system.mem_ctrls1.wrQLenPdf::6                      1                       # What write queue length does an incoming req see
system.mem_ctrls1.wrQLenPdf::7                      1                       # What write queue length does an incoming req see
system.mem_ctrls1.wrQLenPdf::8                      1                       # What write queue length does an incoming req see
system.mem_ctrls1.wrQLenPdf::9                      1                       # What write queue length does an incoming req see
system.mem_ctrls1.wrQLenPdf::10                     1                       # What write queue length does an incoming req see
system.mem_ctrls1.wrQLenPdf::11                     1                       # What write queue length does an incoming req see
system.mem_ctrls1.wrQLenPdf::12                     1                       # What write queue length does an incoming req see
system.mem_ctrls1.wrQLenPdf::13                     1                       # What write queue length does an incoming req see
system.mem_ctrls1.wrQLenPdf::14                     1                       # What write queue length does an incoming req see
system.mem_ctrls1.wrQLenPdf::15                    73                       # What write queue length does an incoming req see
system.mem_ctrls1.wrQLenPdf::16                    85                       # What write queue length does an incoming req see
system.mem_ctrls1.wrQLenPdf::17                    83                       # What write queue length does an incoming req see
system.mem_ctrls1.wrQLenPdf::18                    83                       # What write queue length does an incoming req see
system.mem_ctrls1.wrQLenPdf::19                    86                       # What write queue length does an incoming req see
system.mem_ctrls1.wrQLenPdf::20                    84                       # What write queue length does an incoming req see
system.mem_ctrls1.wrQLenPdf::21                    85                       # What write queue length does an incoming req see
system.mem_ctrls1.wrQLenPdf::22                    81                       # What write queue length does an incoming req see
system.mem_ctrls1.wrQLenPdf::23                    82                       # What write queue length does an incoming req see
system.mem_ctrls1.wrQLenPdf::24                    85                       # What write queue length does an incoming req see
system.mem_ctrls1.wrQLenPdf::25                    83                       # What write queue length does an incoming req see
system.mem_ctrls1.wrQLenPdf::26                    83                       # What write queue length does an incoming req see
system.mem_ctrls1.wrQLenPdf::27                    81                       # What write queue length does an incoming req see
system.mem_ctrls1.wrQLenPdf::28                    81                       # What write queue length does an incoming req see
system.mem_ctrls1.wrQLenPdf::29                    81                       # What write queue length does an incoming req see
system.mem_ctrls1.wrQLenPdf::30                    80                       # What write queue length does an incoming req see
system.mem_ctrls1.wrQLenPdf::31                    80                       # What write queue length does an incoming req see
system.mem_ctrls1.wrQLenPdf::32                    80                       # What write queue length does an incoming req see
system.mem_ctrls1.wrQLenPdf::33                     4                       # What write queue length does an incoming req see
system.mem_ctrls1.wrQLenPdf::34                     2                       # What write queue length does an incoming req see
system.mem_ctrls1.wrQLenPdf::35                     2                       # What write queue length does an incoming req see
system.mem_ctrls1.wrQLenPdf::36                     0                       # What write queue length does an incoming req see
system.mem_ctrls1.wrQLenPdf::37                     0                       # What write queue length does an incoming req see
system.mem_ctrls1.wrQLenPdf::38                     0                       # What write queue length does an incoming req see
system.mem_ctrls1.wrQLenPdf::39                     0                       # What write queue length does an incoming req see
system.mem_ctrls1.wrQLenPdf::40                     0                       # What write queue length does an incoming req see
system.mem_ctrls1.wrQLenPdf::41                     0                       # What write queue length does an incoming req see
system.mem_ctrls1.wrQLenPdf::42                     0                       # What write queue length does an incoming req see
system.mem_ctrls1.wrQLenPdf::43                     0                       # What write queue length does an incoming req see
system.mem_ctrls1.wrQLenPdf::44                     0                       # What write queue length does an incoming req see
system.mem_ctrls1.wrQLenPdf::45                     0                       # What write queue length does an incoming req see
system.mem_ctrls1.wrQLenPdf::46                     0                       # What write queue length does an incoming req see
system.mem_ctrls1.wrQLenPdf::47                     0                       # What write queue length does an incoming req see
system.mem_ctrls1.wrQLenPdf::48                     0                       # What write queue length does an incoming req see
system.mem_ctrls1.wrQLenPdf::49                     0                       # What write queue length does an incoming req see
system.mem_ctrls1.wrQLenPdf::50                     0                       # What write queue length does an incoming req see
system.mem_ctrls1.wrQLenPdf::51                     0                       # What write queue length does an incoming req see
system.mem_ctrls1.wrQLenPdf::52                     0                       # What write queue length does an incoming req see
system.mem_ctrls1.wrQLenPdf::53                     0                       # What write queue length does an incoming req see
system.mem_ctrls1.wrQLenPdf::54                     0                       # What write queue length does an incoming req see
system.mem_ctrls1.wrQLenPdf::55                     0                       # What write queue length does an incoming req see
system.mem_ctrls1.wrQLenPdf::56                     0                       # What write queue length does an incoming req see
system.mem_ctrls1.wrQLenPdf::57                     0                       # What write queue length does an incoming req see
system.mem_ctrls1.wrQLenPdf::58                     0                       # What write queue length does an incoming req see
system.mem_ctrls1.wrQLenPdf::59                     0                       # What write queue length does an incoming req see
system.mem_ctrls1.wrQLenPdf::60                     0                       # What write queue length does an incoming req see
system.mem_ctrls1.wrQLenPdf::61                     0                       # What write queue length does an incoming req see
system.mem_ctrls1.wrQLenPdf::62                     0                       # What write queue length does an incoming req see
system.mem_ctrls1.wrQLenPdf::63                     0                       # What write queue length does an incoming req see
system.mem_ctrls1.bytesPerActivate::samples         2496                       # Bytes accessed per row activation
system.mem_ctrls1.bytesPerActivate::mean   258.461538                       # Bytes accessed per row activation
system.mem_ctrls1.bytesPerActivate::gmean   140.277044                       # Bytes accessed per row activation
system.mem_ctrls1.bytesPerActivate::stdev   328.094016                       # Bytes accessed per row activation
system.mem_ctrls1.bytesPerActivate::0-127         1326     53.12%     53.12% # Bytes accessed per row activation
system.mem_ctrls1.bytesPerActivate::128-255          484     19.39%     72.52% # Bytes accessed per row activation
system.mem_ctrls1.bytesPerActivate::256-383          168      6.73%     79.25% # Bytes accessed per row activation
system.mem_ctrls1.bytesPerActivate::384-511           70      2.80%     82.05% # Bytes accessed per row activation
system.mem_ctrls1.bytesPerActivate::512-639           46      1.84%     83.89% # Bytes accessed per row activation
system.mem_ctrls1.bytesPerActivate::640-767           38      1.52%     85.42% # Bytes accessed per row activation
system.mem_ctrls1.bytesPerActivate::768-895           36      1.44%     86.86% # Bytes accessed per row activation
system.mem_ctrls1.bytesPerActivate::896-1023           21      0.84%     87.70% # Bytes accessed per row activation
system.mem_ctrls1.bytesPerActivate::1024-1151          307     12.30%    100.00% # Bytes accessed per row activation
system.mem_ctrls1.bytesPerActivate::total         2496                       # Bytes accessed per row activation
system.mem_ctrls1.rdPerTurnAround::samples           80                       # Reads before turning the bus around for writes
system.mem_ctrls1.rdPerTurnAround::mean    202.937500                       # Reads before turning the bus around for writes
system.mem_ctrls1.rdPerTurnAround::stdev  1073.784899                       # Reads before turning the bus around for writes
system.mem_ctrls1.rdPerTurnAround::0-511           76     95.00%     95.00% # Reads before turning the bus around for writes
system.mem_ctrls1.rdPerTurnAround::512-1023            1      1.25%     96.25% # Reads before turning the bus around for writes
system.mem_ctrls1.rdPerTurnAround::3072-3583            1      1.25%     97.50% # Reads before turning the bus around for writes
system.mem_ctrls1.rdPerTurnAround::3584-4095            1      1.25%     98.75% # Reads before turning the bus around for writes
system.mem_ctrls1.rdPerTurnAround::8192-8703            1      1.25%    100.00% # Reads before turning the bus around for writes
system.mem_ctrls1.rdPerTurnAround::total           80                       # Reads before turning the bus around for writes
system.mem_ctrls1.wrPerTurnAround::samples           80                       # Writes before turning the bus around for reads
system.mem_ctrls1.wrPerTurnAround::mean     18.550000                       # Writes before turning the bus around for reads
system.mem_ctrls1.wrPerTurnAround::gmean    18.513608                       # Writes before turning the bus around for reads
system.mem_ctrls1.wrPerTurnAround::stdev     1.178929                       # Writes before turning the bus around for reads
system.mem_ctrls1.wrPerTurnAround::16               6      7.50%      7.50% # Writes before turning the bus around for reads
system.mem_ctrls1.wrPerTurnAround::17               1      1.25%      8.75% # Writes before turning the bus around for reads
system.mem_ctrls1.wrPerTurnAround::18              29     36.25%     45.00% # Writes before turning the bus around for reads
system.mem_ctrls1.wrPerTurnAround::19              39     48.75%     93.75% # Writes before turning the bus around for reads
system.mem_ctrls1.wrPerTurnAround::20               1      1.25%     95.00% # Writes before turning the bus around for reads
system.mem_ctrls1.wrPerTurnAround::21               1      1.25%     96.25% # Writes before turning the bus around for reads
system.mem_ctrls1.wrPerTurnAround::22               2      2.50%     98.75% # Writes before turning the bus around for reads
system.mem_ctrls1.wrPerTurnAround::23               1      1.25%    100.00% # Writes before turning the bus around for reads
system.mem_ctrls1.wrPerTurnAround::total           80                       # Writes before turning the bus around for reads
system.mem_ctrls1.totQLat                    63006000                       # Total ticks spent queuing
system.mem_ctrls1.totMemAccLat              224181000                       # Total ticks spent from burst creation until serviced by the DRAM
system.mem_ctrls1.totBusLat                  42980000                       # Total ticks spent in databus transfers
system.mem_ctrls1.avgQLat                     7329.69                       # Average queueing delay per DRAM burst
system.mem_ctrls1.avgBusLat                   5000.00                       # Average bus latency per DRAM burst
system.mem_ctrls1.avgMemAccLat               26079.69                       # Average memory access latency per DRAM burst
system.mem_ctrls1.avgRdBW                        0.15                       # Average DRAM read bandwidth in MiByte/s
system.mem_ctrls1.avgWrBW                        0.03                       # Average achieved write bandwidth in MiByte/s
system.mem_ctrls1.avgRdBWSys                     0.15                       # Average system read bandwidth in MiByte/s
system.mem_ctrls1.avgWrBWSys                     0.03                       # Average system write bandwidth in MiByte/s
system.mem_ctrls1.peakBW                     12800.00                       # Theoretical peak bandwidth in MiByte/s
system.mem_ctrls1.busUtil                        0.00                       # Data bus utilization in percentage
system.mem_ctrls1.busUtilRead                    0.00                       # Data bus utilization in percentage for reads
system.mem_ctrls1.busUtilWrite                   0.00                       # Data bus utilization in percentage for writes
system.mem_ctrls1.avgRdQLen                      1.00                       # Average read queue length when enqueuing
system.mem_ctrls1.avgWrQLen                     17.82                       # Average write queue length when enqueuing
system.mem_ctrls1.readRowHits                    6217                       # Number of row buffer hits during reads
system.mem_ctrls1.writeRowHits                   1368                       # Number of row buffer hits during writes
system.mem_ctrls1.readRowHitRate                72.32                       # Row buffer hit rate for reads
system.mem_ctrls1.writeRowHitRate               91.26                       # Row buffer hit rate for writes
system.mem_ctrls1.avgGap                 355873322.87                       # Average gap between requests
system.mem_ctrls1.pageHitRate                   75.14                       # Row buffer hit rate, read and write combined
system.mem_ctrls1_0.actEnergy                17569440                       # Energy for activate commands per rank (pJ)
system.mem_ctrls1_0.preEnergy                 9586500                       # Energy for precharge commands per rank (pJ)
system.mem_ctrls1_0.readEnergy               63468600                       # Energy for read commands per rank (pJ)
system.mem_ctrls1_0.writeEnergy               4147200                       # Energy for write commands per rank (pJ)
system.mem_ctrls1_0.refreshEnergy        234913018080                       # Energy for refresh commands per rank (pJ)
system.mem_ctrls1_0.actBackEnergy         80483903955                       # Energy for active background per rank (pJ)
system.mem_ctrls1_0.preBackEnergy        2087365648500                       # Energy for precharge background per rank (pJ)
system.mem_ctrls1_0.totalEnergy          2402857342275                       # Total energy per rank (pJ)
system.mem_ctrls1_0.averagePower           668.089625                       # Core power per rank (mW)
system.mem_ctrls1_0.memoryStateTime::IDLE 3470847694000                       # Time in different power states
system.mem_ctrls1_0.memoryStateTime::REF 119986620000                       # Time in different power states
system.mem_ctrls1_0.memoryStateTime::PRE_PDN            0                       # Time in different power states
system.mem_ctrls1_0.memoryStateTime::ACT   2423728000                       # Time in different power states
system.mem_ctrls1_0.memoryStateTime::ACT_PDN            0                       # Time in different power states
system.mem_ctrls1_1.actEnergy                20268360                       # Energy for activate commands per rank (pJ)
system.mem_ctrls1_1.preEnergy                11059125                       # Energy for precharge commands per rank (pJ)
system.mem_ctrls1_1.readEnergy               63445200                       # Energy for read commands per rank (pJ)
system.mem_ctrls1_1.writeEnergy               5469120                       # Energy for write commands per rank (pJ)
system.mem_ctrls1_1.refreshEnergy        234913018080                       # Energy for refresh commands per rank (pJ)
system.mem_ctrls1_1.actBackEnergy         80743187835                       # Energy for active background per rank (pJ)
system.mem_ctrls1_1.preBackEnergy        2087138206500                       # Energy for precharge background per rank (pJ)
system.mem_ctrls1_1.totalEnergy          2402894654220                       # Total energy per rank (pJ)
system.mem_ctrls1_1.averagePower           668.100000                       # Core power per rank (mW)
system.mem_ctrls1_1.memoryStateTime::IDLE 3470779430500                       # Time in different power states
system.mem_ctrls1_1.memoryStateTime::REF 119986620000                       # Time in different power states
system.mem_ctrls1_1.memoryStateTime::PRE_PDN            0                       # Time in different power states
system.mem_ctrls1_1.memoryStateTime::ACT   2485782500                       # Time in different power states
system.mem_ctrls1_1.memoryStateTime::ACT_PDN            0                       # Time in different power states
system.cpu_voltage_domain.voltage                   1                       # Voltage in Volts
system.cpu_clk_domain.clock                       500                       # Clock period in ticks
system.cpu0.apic_clk_domain.clock                8000                       # Clock period in ticks
system.cpu0.numCycles                      7186942882                       # number of cpu cycles simulated
system.cpu0.numWorkItemsStarted                     0                       # number of work items this cpu started
system.cpu0.numWorkItemsCompleted                   0                       # number of work items this cpu completed
system.cpu0.kern.inst.arm                           0                       # number of arm instructions executed
system.cpu0.kern.inst.quiesce                       0                       # number of quiesce instructions executed
system.cpu0.committedInsts                   19512540                       # Number of instructions committed
system.cpu0.committedOps                     34590506                       # Number of ops (including micro ops) committed
system.cpu0.num_int_alu_accesses             29191510                       # Number of integer alu accesses
system.cpu0.num_fp_alu_accesses               8399337                       # Number of float alu accesses
system.cpu0.num_func_calls                     612033                       # number of times a function call or return occured
system.cpu0.num_conditional_control_insts      2054922                       # number of instructions that are conditional controls
system.cpu0.num_int_insts                    29191510                       # number of integer instructions
system.cpu0.num_fp_insts                      8399337                       # number of float instructions
system.cpu0.num_int_register_reads           56350312                       # number of times the integer registers were read
system.cpu0.num_int_register_writes          22223232                       # number of times the integer registers were written
system.cpu0.num_fp_register_reads            14064330                       # number of times the floating registers were read
system.cpu0.num_fp_register_writes            7474281                       # number of times the floating registers were written
system.cpu0.num_cc_register_reads            14153667                       # number of times the CC registers were read
system.cpu0.num_cc_register_writes           10439754                       # number of times the CC registers were written
system.cpu0.num_mem_refs                      7741605                       # number of memory refs
system.cpu0.num_load_insts                    5749461                       # Number of load instructions
system.cpu0.num_store_insts                   1992144                       # Number of store instructions
system.cpu0.num_idle_cycles              7114766411.303797                       # Number of idle cycles
system.cpu0.num_busy_cycles              72176470.696203                       # Number of busy cycles
system.cpu0.not_idle_fraction                0.010043                       # Percentage of non-idle cycles
system.cpu0.idle_fraction                    0.989957                       # Percentage of idle cycles
system.cpu0.Branches                          2822707                       # Number of branches fetched
system.cpu0.op_class::No_OpClass               120490      0.35%      0.35% # Class of executed instruction
system.cpu0.op_class::IntAlu                 22858707     66.08%     66.43% # Class of executed instruction
system.cpu0.op_class::IntMult                  213660      0.62%     67.05% # Class of executed instruction
system.cpu0.op_class::IntDiv                    37880      0.11%     67.16% # Class of executed instruction
system.cpu0.op_class::FloatAdd                3618219     10.46%     77.62% # Class of executed instruction
system.cpu0.op_class::FloatCmp                      0      0.00%     77.62% # Class of executed instruction
system.cpu0.op_class::FloatCvt                      0      0.00%     77.62% # Class of executed instruction
system.cpu0.op_class::FloatMult                     0      0.00%     77.62% # Class of executed instruction
system.cpu0.op_class::FloatDiv                      0      0.00%     77.62% # Class of executed instruction
system.cpu0.op_class::FloatSqrt                     0      0.00%     77.62% # Class of executed instruction
system.cpu0.op_class::SimdAdd                       0      0.00%     77.62% # Class of executed instruction
system.cpu0.op_class::SimdAddAcc                    0      0.00%     77.62% # Class of executed instruction
system.cpu0.op_class::SimdAlu                       0      0.00%     77.62% # Class of executed instruction
system.cpu0.op_class::SimdCmp                       0      0.00%     77.62% # Class of executed instruction
system.cpu0.op_class::SimdCvt                       0      0.00%     77.62% # Class of executed instruction
system.cpu0.op_class::SimdMisc                      0      0.00%     77.62% # Class of executed instruction
system.cpu0.op_class::SimdMult                      0      0.00%     77.62% # Class of executed instruction
system.cpu0.op_class::SimdMultAcc                   0      0.00%     77.62% # Class of executed instruction
system.cpu0.op_class::SimdShift                     0      0.00%     77.62% # Class of executed instruction
system.cpu0.op_class::SimdShiftAcc                  0      0.00%     77.62% # Class of executed instruction
system.cpu0.op_class::SimdSqrt                      0      0.00%     77.62% # Class of executed instruction
system.cpu0.op_class::SimdFloatAdd                  0      0.00%     77.62% # Class of executed instruction
system.cpu0.op_class::SimdFloatAlu                  0      0.00%     77.62% # Class of executed instruction
system.cpu0.op_class::SimdFloatCmp                  0      0.00%     77.62% # Class of executed instruction
system.cpu0.op_class::SimdFloatCvt                  0      0.00%     77.62% # Class of executed instruction
system.cpu0.op_class::SimdFloatDiv                  0      0.00%     77.62% # Class of executed instruction
system.cpu0.op_class::SimdFloatMisc                 0      0.00%     77.62% # Class of executed instruction
system.cpu0.op_class::SimdFloatMult                 0      0.00%     77.62% # Class of executed instruction
system.cpu0.op_class::SimdFloatMultAcc              0      0.00%     77.62% # Class of executed instruction
system.cpu0.op_class::SimdFloatSqrt                 0      0.00%     77.62% # Class of executed instruction
system.cpu0.op_class::MemRead                 5749461     16.62%     94.24% # Class of executed instruction
system.cpu0.op_class::MemWrite                1992144      5.76%    100.00% # Class of executed instruction
system.cpu0.op_class::IprAccess                     0      0.00%    100.00% # Class of executed instruction
system.cpu0.op_class::InstPrefetch                  0      0.00%    100.00% # Class of executed instruction
system.cpu0.op_class::total                  34590561                       # Class of executed instruction
system.cpu1.apic_clk_domain.clock                8000                       # Clock period in ticks
system.cpu1.numCycles                      7187237842                       # number of cpu cycles simulated
system.cpu1.numWorkItemsStarted                     0                       # number of work items this cpu started
system.cpu1.numWorkItemsCompleted                   0                       # number of work items this cpu completed
system.cpu1.kern.inst.arm                           0                       # number of arm instructions executed
system.cpu1.kern.inst.quiesce                       0                       # number of quiesce instructions executed
system.cpu1.committedInsts                 1994015978                       # Number of instructions committed
system.cpu1.committedOps                   3391959953                       # Number of ops (including micro ops) committed
system.cpu1.num_int_alu_accesses           2756621705                       # Number of integer alu accesses
system.cpu1.num_fp_alu_accesses            1010088517                       # Number of float alu accesses
system.cpu1.num_func_calls                   49907261                       # number of times a function call or return occured
system.cpu1.num_conditional_control_insts    199772947                       # number of instructions that are conditional controls
system.cpu1.num_int_insts                  2756621705                       # number of integer instructions
system.cpu1.num_fp_insts                   1010088517                       # number of float instructions
system.cpu1.num_int_register_reads         5216403837                       # number of times the integer registers were read
system.cpu1.num_int_register_writes        2051834484                       # number of times the integer registers were written
system.cpu1.num_fp_register_reads          1701898740                       # number of times the floating registers were read
system.cpu1.num_fp_register_writes          899765659                       # number of times the floating registers were written
system.cpu1.num_cc_register_reads          1288191133                       # number of times the CC registers were read
system.cpu1.num_cc_register_writes         1039075000                       # number of times the CC registers were written
system.cpu1.num_mem_refs                    738020862                       # number of memory refs
system.cpu1.num_load_insts                  571675999                       # Number of load instructions
system.cpu1.num_store_insts                 166344863                       # Number of store instructions
system.cpu1.num_idle_cycles              63719665.105254                       # Number of idle cycles
system.cpu1.num_busy_cycles              7123518176.894746                       # Number of busy cycles
system.cpu1.not_idle_fraction                0.991134                       # Percentage of non-idle cycles
system.cpu1.idle_fraction                    0.008866                       # Percentage of idle cycles
system.cpu1.Branches                        261084323                       # Number of branches fetched
system.cpu1.op_class::No_OpClass              1505647      0.04%      0.04% # Class of executed instruction
system.cpu1.op_class::IntAlu               2188564251     64.52%     64.57% # Class of executed instruction
system.cpu1.op_class::IntMult                24039726      0.71%     65.28% # Class of executed instruction
system.cpu1.op_class::IntDiv                   210255      0.01%     65.28% # Class of executed instruction
system.cpu1.op_class::FloatAdd              439619365     12.96%     78.24% # Class of executed instruction
system.cpu1.op_class::FloatCmp                      0      0.00%     78.24% # Class of executed instruction
system.cpu1.op_class::FloatCvt                      0      0.00%     78.24% # Class of executed instruction
system.cpu1.op_class::FloatMult                     0      0.00%     78.24% # Class of executed instruction
system.cpu1.op_class::FloatDiv                      0      0.00%     78.24% # Class of executed instruction
system.cpu1.op_class::FloatSqrt                     0      0.00%     78.24% # Class of executed instruction
system.cpu1.op_class::SimdAdd                       0      0.00%     78.24% # Class of executed instruction
system.cpu1.op_class::SimdAddAcc                    0      0.00%     78.24% # Class of executed instruction
system.cpu1.op_class::SimdAlu                       0      0.00%     78.24% # Class of executed instruction
system.cpu1.op_class::SimdCmp                       0      0.00%     78.24% # Class of executed instruction
system.cpu1.op_class::SimdCvt                       0      0.00%     78.24% # Class of executed instruction
system.cpu1.op_class::SimdMisc                      0      0.00%     78.24% # Class of executed instruction
system.cpu1.op_class::SimdMult                      0      0.00%     78.24% # Class of executed instruction
system.cpu1.op_class::SimdMultAcc                   0      0.00%     78.24% # Class of executed instruction
system.cpu1.op_class::SimdShift                     0      0.00%     78.24% # Class of executed instruction
system.cpu1.op_class::SimdShiftAcc                  0      0.00%     78.24% # Class of executed instruction
system.cpu1.op_class::SimdSqrt                      0      0.00%     78.24% # Class of executed instruction
system.cpu1.op_class::SimdFloatAdd                  0      0.00%     78.24% # Class of executed instruction
system.cpu1.op_class::SimdFloatAlu                  0      0.00%     78.24% # Class of executed instruction
system.cpu1.op_class::SimdFloatCmp                  0      0.00%     78.24% # Class of executed instruction
system.cpu1.op_class::SimdFloatCvt                  0      0.00%     78.24% # Class of executed instruction
system.cpu1.op_class::SimdFloatDiv                  0      0.00%     78.24% # Class of executed instruction
system.cpu1.op_class::SimdFloatMisc                 0      0.00%     78.24% # Class of executed instruction
system.cpu1.op_class::SimdFloatMult                 0      0.00%     78.24% # Class of executed instruction
system.cpu1.op_class::SimdFloatMultAcc              0      0.00%     78.24% # Class of executed instruction
system.cpu1.op_class::SimdFloatSqrt                 0      0.00%     78.24% # Class of executed instruction
system.cpu1.op_class::MemRead               571675999     16.85%     95.10% # Class of executed instruction
system.cpu1.op_class::MemWrite              166344863      4.90%    100.00% # Class of executed instruction
system.cpu1.op_class::IprAccess                     0      0.00%    100.00% # Class of executed instruction
system.cpu1.op_class::InstPrefetch                  0      0.00%    100.00% # Class of executed instruction
system.cpu1.op_class::total                3391960106                       # Class of executed instruction
system.cpu2.apic_clk_domain.clock                8000                       # Clock period in ticks
system.cpu2.numCycles                      7182155355                       # number of cpu cycles simulated
system.cpu2.numWorkItemsStarted                     0                       # number of work items this cpu started
system.cpu2.numWorkItemsCompleted                   0                       # number of work items this cpu completed
system.cpu2.kern.inst.arm                           0                       # number of arm instructions executed
system.cpu2.kern.inst.quiesce                       0                       # number of quiesce instructions executed
system.cpu2.committedInsts                    2570975                       # Number of instructions committed
system.cpu2.committedOps                      5543889                       # Number of ops (including micro ops) committed
system.cpu2.num_int_alu_accesses              5421768                       # Number of integer alu accesses
system.cpu2.num_fp_alu_accesses                     0                       # Number of float alu accesses
system.cpu2.num_func_calls                     152333                       # number of times a function call or return occured
system.cpu2.num_conditional_control_insts       391519                       # number of instructions that are conditional controls
system.cpu2.num_int_insts                     5421768                       # number of integer instructions
system.cpu2.num_fp_insts                            0                       # number of float instructions
system.cpu2.num_int_register_reads           11011668                       # number of times the integer registers were read
system.cpu2.num_int_register_writes           4500453                       # number of times the integer registers were written
system.cpu2.num_fp_register_reads                   0                       # number of times the floating registers were read
system.cpu2.num_fp_register_writes                  0                       # number of times the floating registers were written
system.cpu2.num_cc_register_reads             3129395                       # number of times the CC registers were read
system.cpu2.num_cc_register_writes            1647694                       # number of times the CC registers were written
system.cpu2.num_mem_refs                      1318607                       # number of memory refs
system.cpu2.num_load_insts                     821717                       # Number of load instructions
system.cpu2.num_store_insts                    496890                       # Number of store instructions
system.cpu2.num_idle_cycles              7171375463.524609                       # Number of idle cycles
system.cpu2.num_busy_cycles              10779891.475391                       # Number of busy cycles
system.cpu2.not_idle_fraction                0.001501                       # Percentage of non-idle cycles
system.cpu2.idle_fraction                    0.998499                       # Percentage of idle cycles
system.cpu2.Branches                           593140                       # Number of branches fetched
system.cpu2.op_class::No_OpClass               103941      1.87%      1.87% # Class of executed instruction
[...]
system.ruby.L1Cache_Controller.O.Trigger_L2_to_L1D::total         9712                      
system.ruby.L1Cache_Controller.O.Trigger_L2_to_L1I |       23179     45.96%     45.96% |         115      0.23%     46.18% |        9562     18.96%     65.14% |       17582     34.86%    100.00%
system.ruby.L1Cache_Controller.O.Trigger_L2_to_L1I::total        50438                      
system.ruby.L1Cache_Controller.O.Other_GETX |        4735     22.49%     22.49% |        5463     25.95%     48.44% |        6705     31.85%     80.28% |        4151     19.72%    100.00%
system.ruby.L1Cache_Controller.O.Other_GETX::total        21054                      
system.ruby.L1Cache_Controller.O.Other_GETS |       11931     38.10%     38.10% |        7671     24.50%     62.60% |        7602     24.28%     86.87% |        4111     13.13%    100.00%
system.ruby.L1Cache_Controller.O.Other_GETS::total        31315                      
system.ruby.L1Cache_Controller.M.Load    |     1556595      2.88%      2.88% |    52276794     96.56%     99.44% |      150339      0.28%     99.72% |      152766      0.28%    100.00%
system.ruby.L1Cache_Controller.M.Load::total     54136494                      
system.ruby.L1Cache_Controller.M.Ifetch  |    21625174     31.61%     31.61% |    45218496     66.10%     97.72% |       88616      0.13%     97.85% |     1471992      2.15%    100.00%
system.ruby.L1Cache_Controller.M.Ifetch::total     68404278                      
system.ruby.L1Cache_Controller.M.Store   |        2924     19.46%     19.46% |        2337     15.55%     35.01% |        5710     38.00%     73.02% |        4054     26.98%    100.00%
system.ruby.L1Cache_Controller.M.Store::total        15025                      
system.ruby.L1Cache_Controller.M.L2_Replacement |          35      6.54%      6.54% |          22      4.11%     10.65% |         203     37.94%     48.60% |         275     51.40%    100.00%
system.ruby.L1Cache_Controller.M.L2_Replacement::total          535                      
system.ruby.L1Cache_Controller.M.L1_to_L2 |       28749     18.58%     18.58% |      105971     68.48%     87.05% |        7011      4.53%     91.58% |       13026      8.42%    100.00%
system.ruby.L1Cache_Controller.M.L1_to_L2::total       154757                      
system.ruby.L1Cache_Controller.M.Trigger_L2_to_L1D |        9714      8.61%      8.61% |       97278     86.26%     94.87% |        2134      1.89%     96.77% |        3647      3.23%    100.00%
system.ruby.L1Cache_Controller.M.Trigger_L2_to_L1D::total       112773                      
system.ruby.L1Cache_Controller.M.Trigger_L2_to_L1I |       15014     63.44%     63.44% |        4470     18.89%     82.32% |         832      3.52%     85.84% |        3352     14.16%    100.00%
system.ruby.L1Cache_Controller.M.Trigger_L2_to_L1I::total        23668                      
system.ruby.L1Cache_Controller.M.Other_GETX |         274     11.50%     11.50% |         306     12.85%     24.35% |        1074     45.09%     69.44% |         728     30.56%    100.00%
system.ruby.L1Cache_Controller.M.Other_GETX::total         2382                      
system.ruby.L1Cache_Controller.M.Other_GETS |        9087     31.66%     31.66% |        6030     21.01%     52.66% |        7491     26.10%     78.76% |        6097     21.24%    100.00%
system.ruby.L1Cache_Controller.M.Other_GETS::total        28705                      
system.ruby.L1Cache_Controller.M.Merged_GETS |           5      6.58%      6.58% |          66     86.84%     93.42% |           2      2.63%     96.05% |           3      3.95%    100.00%
system.ruby.L1Cache_Controller.M.Merged_GETS::total           76                      
system.ruby.L1Cache_Controller.MM.Load   |     3841903      1.06%      1.06% |   357456714     98.35%     99.40% |      980216      0.27%     99.67% |     1187931      0.33%    100.00%
system.ruby.L1Cache_Controller.MM.Load::total    363466764                      
system.ruby.L1Cache_Controller.MM.Store  |     2315217      1.32%      1.32% |   171276777     97.37%     98.69% |     1087029      0.62%     99.31% |     1217024      0.69%    100.00%
system.ruby.L1Cache_Controller.MM.Store::total    175896047                      
system.ruby.L1Cache_Controller.MM.L2_Replacement |         144      7.17%      7.17% |         207     10.31%     17.49% |        1233     61.43%     78.92% |         423     21.08%    100.00%
system.ruby.L1Cache_Controller.MM.L2_Replacement::total         2007                      
system.ruby.L1Cache_Controller.MM.L1_to_L2 |       24920      1.87%      1.87% |     1248608     93.86%     95.74% |       26536      1.99%     97.73% |       30181      2.27%    100.00%
system.ruby.L1Cache_Controller.MM.L1_to_L2::total      1330245                      
system.ruby.L1Cache_Controller.MM.Trigger_L2_to_L1D |       16028      1.26%      1.26% |     1234666     96.78%     98.03% |       11237      0.88%     98.92% |       13832      1.08%    100.00%
system.ruby.L1Cache_Controller.MM.Trigger_L2_to_L1D::total      1275763                      
system.ruby.L1Cache_Controller.MM.Other_GETX |        3186     20.18%     20.18% |        4192     26.55%     46.73% |        2184     13.83%     60.56% |        6226     39.44%    100.00%
system.ruby.L1Cache_Controller.MM.Other_GETX::total        15788                      
system.ruby.L1Cache_Controller.MM.Other_GETS |       10382     32.26%     32.26% |        5718     17.77%     50.02% |        6217     19.32%     69.34% |        9869     30.66%    100.00%
system.ruby.L1Cache_Controller.MM.Other_GETS::total        32186                      
system.ruby.L1Cache_Controller.MM.Merged_GETS |         181     26.46%     26.46% |         236     34.50%     60.96% |         218     31.87%     92.84% |          49      7.16%    100.00%
system.ruby.L1Cache_Controller.MM.Merged_GETS::total          684                      
system.ruby.L1Cache_Controller.SR.Load   |        4340      0.44%      0.44% |      974501     97.99%     98.43% |       10082      1.01%     99.44% |        5540      0.56%    100.00%
system.ruby.L1Cache_Controller.SR.Load::total       994463                      
system.ruby.L1Cache_Controller.SR.Ifetch |       29043      2.26%      2.26% |     1178814     91.86%     94.12% |       44398      3.46%     97.58% |       31080      2.42%    100.00%
system.ruby.L1Cache_Controller.SR.Ifetch::total      1283335                      
system.ruby.L1Cache_Controller.SR.Store  |          59     11.82%     11.82% |          16      3.21%     15.03% |         147     29.46%     44.49% |         277     55.51%    100.00%
system.ruby.L1Cache_Controller.SR.Store::total          499                      
system.ruby.L1Cache_Controller.OR.Load   |        4567     47.27%     47.27% |         857      8.87%     56.14% |        2078     21.51%     77.65% |        2159     22.35%    100.00%
system.ruby.L1Cache_Controller.OR.Load::total         9661                      
system.ruby.L1Cache_Controller.OR.Ifetch |       23179     45.96%     45.96% |         115      0.23%     46.18% |        9562     18.96%     65.14% |       17582     34.86%    100.00%
system.ruby.L1Cache_Controller.OR.Ifetch::total        50438                      
system.ruby.L1Cache_Controller.OR.Store  |          10     19.61%     19.61% |          13     25.49%     45.10% |           7     13.73%     58.82% |          21     41.18%    100.00%
system.ruby.L1Cache_Controller.OR.Store::total           51                      
system.ruby.L1Cache_Controller.MR.Load   |        9445      8.56%      8.56% |       97200     88.09%     96.65% |        1584      1.44%     98.09% |        2108      1.91%    100.00%
system.ruby.L1Cache_Controller.MR.Load::total       110337                      
system.ruby.L1Cache_Controller.MR.Ifetch |       15014     63.44%     63.44% |        4470     18.89%     82.32% |         832      3.52%     85.84% |        3352     14.16%    100.00%
system.ruby.L1Cache_Controller.MR.Ifetch::total        23668                      
system.ruby.L1Cache_Controller.MR.Store  |         269     11.04%     11.04% |          78      3.20%     14.24% |         550     22.58%     36.82% |        1539     63.18%    100.00%
system.ruby.L1Cache_Controller.MR.Store::total         2436                      
system.ruby.L1Cache_Controller.MMR.Load  |        5395      1.47%      1.47% |      346179     94.39%     95.86% |        6538      1.78%     97.64% |        8650      2.36%    100.00%
system.ruby.L1Cache_Controller.MMR.Load::total       366762                      
system.ruby.L1Cache_Controller.MMR.Store |       10633      1.17%      1.17% |      888487     97.74%     98.91% |        4699      0.52%     99.43% |        5182      0.57%    100.00%
system.ruby.L1Cache_Controller.MMR.Store::total       909001                      
system.ruby.L1Cache_Controller.IM.Ack    |       15764     16.72%     16.72% |       29688     31.49%     48.21% |       14606     15.49%     63.70% |       34229     36.30%    100.00%
system.ruby.L1Cache_Controller.IM.Ack::total        94287                      
system.ruby.L1Cache_Controller.IM.Data   |        3392     42.41%     42.41% |         883     11.04%     53.45% |        2027     25.34%     78.79% |        1696     21.21%    100.00%
system.ruby.L1Cache_Controller.IM.Data::total         7998                      
system.ruby.L1Cache_Controller.IM.Exclusive_Data |        6767     17.06%     17.06% |       11933     30.08%     47.13% |        7931     19.99%     67.12% |       13043     32.88%    100.00%
system.ruby.L1Cache_Controller.IM.Exclusive_Data::total        39674                      
system.ruby.L1Cache_Controller.SM.Ack    |        5674     53.45%     53.45% |         426      4.01%     57.46% |        1664     15.67%     73.13% |        2852     26.87%    100.00%
system.ruby.L1Cache_Controller.SM.Ack::total        10616                      
system.ruby.L1Cache_Controller.SM.Data   |        4858     37.22%     37.22% |        2080     15.94%     53.15% |        3135     24.02%     77.17% |        2980     22.83%    100.00%
system.ruby.L1Cache_Controller.SM.Data::total        13053                      
system.ruby.L1Cache_Controller.OM.Ack    |         111     11.97%     11.97% |         288     31.07%     43.04% |         222     23.95%     66.99% |         306     33.01%    100.00%
system.ruby.L1Cache_Controller.OM.Ack::total          927                      
system.ruby.L1Cache_Controller.OM.All_acks_no_sharers |          37     11.97%     11.97% |          96     31.07%     43.04% |          74     23.95%     66.99% |         102     33.01%    100.00%
system.ruby.L1Cache_Controller.OM.All_acks_no_sharers::total          309                      
system.ruby.L1Cache_Controller.ISM.Ack   |        7419     28.64%     28.64% |        5426     20.94%     49.58% |        8070     31.15%     80.73% |        4992     19.27%    100.00%
system.ruby.L1Cache_Controller.ISM.Ack::total        25907                      
system.ruby.L1Cache_Controller.ISM.All_acks_no_sharers |        8250     39.19%     39.19% |        2963     14.08%     53.27% |        5162     24.52%     77.79% |        4676     22.21%    100.00%
system.ruby.L1Cache_Controller.ISM.All_acks_no_sharers::total        21051                      
system.ruby.L1Cache_Controller.M_W.Load  |          31     15.35%     15.35% |          44     21.78%     37.13% |          55     27.23%     64.36% |          72     35.64%    100.00%
system.ruby.L1Cache_Controller.M_W.Load::total          202                      
system.ruby.L1Cache_Controller.M_W.Store |           7      9.46%      9.46% |          33     44.59%     54.05% |           4      5.41%     59.46% |          30     40.54%    100.00%
system.ruby.L1Cache_Controller.M_W.Store::total           74                      
system.ruby.L1Cache_Controller.M_W.Ack   |        5433     22.24%     22.24% |        3435     14.06%     36.30% |        6768     27.70%     64.00% |        8797     36.00%    100.00%
system.ruby.L1Cache_Controller.M_W.Ack::total        24433                      
system.ruby.L1Cache_Controller.M_W.All_acks_no_sharers |       11955     22.27%     22.27% |        9734     18.14%     40.41% |       16258     30.29%     70.70% |       15728     29.30%    100.00%
system.ruby.L1Cache_Controller.M_W.All_acks_no_sharers::total        53675                      
system.ruby.L1Cache_Controller.MM_W.Load |           0      0.00%      0.00% |           0      0.00%      0.00% |           1    100.00%    100.00% |           0      0.00%    100.00%
system.ruby.L1Cache_Controller.MM_W.Load::total            1                      
system.ruby.L1Cache_Controller.MM_W.Store |        1150     22.79%     22.79% |         889     17.61%     40.40% |        1586     31.42%     71.82% |        1422     28.18%    100.00%
system.ruby.L1Cache_Controller.MM_W.Store::total         5047                      
system.ruby.L1Cache_Controller.MM_W.Ack  |        3393     25.86%     25.86% |        2640     20.12%     45.98% |        4033     30.73%     76.71% |        3056     23.29%    100.00%
system.ruby.L1Cache_Controller.MM_W.Ack::total        13122                      
system.ruby.L1Cache_Controller.MM_W.All_acks_no_sharers |        6774     17.04%     17.04% |       11966     30.10%     47.15% |        7935     19.96%     67.11% |       13073     32.89%    100.00%
system.ruby.L1Cache_Controller.MM_W.All_acks_no_sharers::total        39748                      
system.ruby.L1Cache_Controller.IS.Ack    |       30057     21.36%     21.36% |       22420     15.94%     37.30% |       48356     34.37%     71.67% |       39855     28.33%    100.00%
system.ruby.L1Cache_Controller.IS.Ack::total       140688                      
system.ruby.L1Cache_Controller.IS.Shared_Ack |        6505     30.21%     30.21% |        5336     24.78%     54.99% |        1975      9.17%     64.16% |        7716     35.84%    100.00%
system.ruby.L1Cache_Controller.IS.Shared_Ack::total        21532                      
system.ruby.L1Cache_Controller.IS.Data   |         221     49.22%     49.22% |          29      6.46%     55.68% |         132     29.40%     85.08% |          67     14.92%    100.00%
system.ruby.L1Cache_Controller.IS.Data::total          449                      
system.ruby.L1Cache_Controller.IS.Shared_Data |       13241     21.78%     21.78% |       10646     17.52%     39.30% |       15715     25.86%     65.16% |       21179     34.84%    100.00%
system.ruby.L1Cache_Controller.IS.Shared_Data::total        60781                      
system.ruby.L1Cache_Controller.IS.Exclusive_Data |       11962     22.26%     22.26% |        9767     18.17%     40.43% |       16262     30.26%     70.68% |       15758     29.32%    100.00%
system.ruby.L1Cache_Controller.IS.Exclusive_Data::total        53749                      
system.ruby.L1Cache_Controller.SS.Load   |           6      1.34%      1.34% |         120     26.85%     28.19% |         139     31.10%     59.28% |         182     40.72%    100.00%
system.ruby.L1Cache_Controller.SS.Load::total          447                      
system.ruby.L1Cache_Controller.SS.Ifetch |         646      7.53%      7.53% |        2223     25.91%     33.44% |        1725     20.11%     53.55% |        3985     46.45%    100.00%
system.ruby.L1Cache_Controller.SS.Ifetch::total         8579                      
system.ruby.L1Cache_Controller.SS.Store  |           0      0.00%      0.00% |          40     85.11%     85.11% |           6     12.77%     97.87% |           1      2.13%    100.00%
system.ruby.L1Cache_Controller.SS.Store::total           47                      
system.ruby.L1Cache_Controller.SS.Ack    |        8093     18.91%     18.91% |        4920     11.50%     30.41% |        9567     22.36%     52.77% |       20209     47.23%    100.00%
system.ruby.L1Cache_Controller.SS.Ack::total        42789                      
system.ruby.L1Cache_Controller.SS.Shared_Ack |        5000     23.88%     23.88% |        6552     31.29%     55.16% |        4033     19.26%     74.42% |        5356     25.58%    100.00%
system.ruby.L1Cache_Controller.SS.Shared_Ack::total        20941                      
system.ruby.L1Cache_Controller.SS.All_acks |       13459     21.99%     21.99% |       10675     17.44%     39.42% |       15838     25.87%     65.29% |       21246     34.71%    100.00%
system.ruby.L1Cache_Controller.SS.All_acks::total        61218                      
system.ruby.L1Cache_Controller.SS.All_acks_no_sharers |           3     25.00%     25.00% |           0      0.00%     25.00% |           9     75.00%    100.00% |           0      0.00%    100.00%
system.ruby.L1Cache_Controller.SS.All_acks_no_sharers::total           12                      
system.ruby.L1Cache_Controller.OI.Load   |           5     71.43%     71.43% |           0      0.00%     71.43% |           2     28.57%    100.00% |           0      0.00%    100.00%
system.ruby.L1Cache_Controller.OI.Load::total            7                      
system.ruby.L1Cache_Controller.OI.Ifetch |           0      0.00%      0.00% |           0      0.00%      0.00% |           0      0.00%      0.00% |           1    100.00%    100.00%
system.ruby.L1Cache_Controller.OI.Ifetch::total            1                      
system.ruby.L1Cache_Controller.OI.Writeback_Ack |         340     48.09%     48.09% |           8      1.13%     49.22% |         224     31.68%     80.91% |         135     19.09%    100.00%
system.ruby.L1Cache_Controller.OI.Writeback_Ack::total          707                      
system.ruby.L1Cache_Controller.MI.Load   |           0      0.00%      0.00% |           0      0.00%      0.00% |           4     57.14%     57.14% |           3     42.86%    100.00%
system.ruby.L1Cache_Controller.MI.Load::total            7                      
system.ruby.L1Cache_Controller.MI.Store  |           0      0.00%      0.00% |           2     25.00%     25.00% |           2     25.00%     50.00% |           4     50.00%    100.00%
system.ruby.L1Cache_Controller.MI.Store::total            8                      
system.ruby.L1Cache_Controller.MI.Writeback_Ack |         179      7.04%      7.04% |         229      9.01%     16.05% |        1436     56.49%     72.54% |         698     27.46%    100.00%
system.ruby.L1Cache_Controller.MI.Writeback_Ack::total         2542                      
system.ruby.L1Cache_Controller.ST.Complete_L2_to_L1 |       33442      1.47%      1.47% |     2153331     94.51%     95.98% |       54627      2.40%     98.38% |       36897      1.62%    100.00%
system.ruby.L1Cache_Controller.ST.Complete_L2_to_L1::total      2278297                      
system.ruby.L1Cache_Controller.OT.Complete_L2_to_L1 |       27756     46.14%     46.14% |         985      1.64%     47.78% |       11647     19.36%     67.15% |       19762     32.85%    100.00%
system.ruby.L1Cache_Controller.OT.Complete_L2_to_L1::total        60150                      
system.ruby.L1Cache_Controller.MT.Store  |           0      0.00%      0.00% |           0      0.00%      0.00% |           1    100.00%    100.00% |           0      0.00%    100.00%
system.ruby.L1Cache_Controller.MT.Store::total            1                      
system.ruby.L1Cache_Controller.MT.Complete_L2_to_L1 |       24728     18.12%     18.12% |      101748     74.57%     92.70% |        2966      2.17%     94.87% |        6999      5.13%    100.00%
system.ruby.L1Cache_Controller.MT.Complete_L2_to_L1::total       136441                      
system.ruby.L1Cache_Controller.MMT.Complete_L2_to_L1 |       16028      1.26%      1.26% |     1234666     96.78%     98.03% |       11237      0.88%     98.92% |       13832      1.08%    100.00%
system.ruby.L1Cache_Controller.MMT.Complete_L2_to_L1::total      1275763                      

---------- End Simulation Statistics   ----------
