
---------- Begin Simulation Statistics ----------
sim_seconds                                  3.150189                       # Number of seconds simulated
sim_ticks                                3150189253000                       # Number of ticks simulated
final_tick                               55341465764001                       # Number of ticks from beginning of simulation (restored from checkpoints and never reset)
sim_freq                                 1000000000000                       # Frequency of simulated ticks
host_inst_rate                                 142704                       # Simulator instruction rate (inst/s)
host_op_rate                                   200369                       # Simulator op (including micro ops) rate (op/s)
host_tick_rate                              248109752                       # Simulator tick rate (ticks/s)
host_mem_usage                                2016436                       # Number of bytes of host memory used
host_seconds                                 12696.76                       # Real time elapsed on the host
sim_insts                                  1811880116                       # Number of instructions simulated
sim_ops                                    2544033275                       # Number of ops (including micro ops) simulated
system.voltage_domain.voltage                       1                       # Voltage in Volts
system.clk_domain.clock                          1000                       # Clock period in ticks
system.mem_ctrls.bytes_read::ruby.dir_cntrl0     92020992                       # Number of bytes read from this memory
system.mem_ctrls.bytes_read::total           92020992                       # Number of bytes read from this memory
system.mem_ctrls.bytes_written::ruby.dir_cntrl0     46869760                       # Number of bytes written to this memory
system.mem_ctrls.bytes_written::total        46869760                       # Number of bytes written to this memory
system.mem_ctrls.num_reads::ruby.dir_cntrl0      1437828                       # Number of read requests responded to by this memory
system.mem_ctrls.num_reads::total             1437828                       # Number of read requests responded to by this memory
system.mem_ctrls.num_writes::ruby.dir_cntrl0       732340                       # Number of write requests responded to by this memory
system.mem_ctrls.num_writes::total             732340                       # Number of write requests responded to by this memory
system.mem_ctrls.bw_read::ruby.dir_cntrl0     29211258                       # Total read bandwidth from this memory (bytes/s)
system.mem_ctrls.bw_read::total              29211258                       # Total read bandwidth from this memory (bytes/s)
system.mem_ctrls.bw_write::ruby.dir_cntrl0     14878395                       # Write bandwidth from this memory (bytes/s)
system.mem_ctrls.bw_write::total             14878395                       # Write bandwidth from this memory (bytes/s)
system.mem_ctrls.bw_total::ruby.dir_cntrl0     44089653                       # Total bandwidth to/from this memory (bytes/s)
system.mem_ctrls.bw_total::total             44089653                       # Total bandwidth to/from this memory (bytes/s)
system.mem_ctrls.readReqs                     1437828                       # Number of read requests accepted
system.mem_ctrls.writeReqs                     732340                       # Number of write requests accepted
system.mem_ctrls.readBursts                   1437828                       # Number of DRAM read bursts, including those serviced by the write queue
system.mem_ctrls.writeBursts                   732340                       # Number of DRAM write bursts, including those merged in the write queue
system.mem_ctrls.bytesReadDRAM               91745728                       # Total number of bytes read from DRAM
system.mem_ctrls.bytesReadWrQ                  275264                       # Total number of bytes read from write queue
system.mem_ctrls.bytesWritten                46869760                       # Total number of bytes written to DRAM
system.mem_ctrls.bytesReadSys                92020992                       # Total read bytes from the system interface side
system.mem_ctrls.bytesWrittenSys             46869760                       # Total written bytes from the system interface side
system.mem_ctrls.servicedByWrQ                   4301                       # Number of DRAM read bursts serviced by the write queue
system.mem_ctrls.mergedWrBursts                     0                       # Number of DRAM write bursts merged with an existing one
system.mem_ctrls.neitherReadNorWriteReqs            0                       # Number of requests that are neither read nor write
system.mem_ctrls.perBankRdBursts::0             96369                       # Per bank write bursts
system.mem_ctrls.perBankRdBursts::1             99678                       # Per bank write bursts
system.mem_ctrls.perBankRdBursts::2             86226                       # Per bank write bursts
system.mem_ctrls.perBankRdBursts::3             84979                       # Per bank write bursts
system.mem_ctrls.perBankRdBursts::4             84497                       # Per bank write bursts
system.mem_ctrls.perBankRdBursts::5             83063                       # Per bank write bursts
system.mem_ctrls.perBankRdBursts::6             88980                       # Per bank write bursts
system.mem_ctrls.perBankRdBursts::7             86788                       # Per bank write bursts
system.mem_ctrls.perBankRdBursts::8             87517                       # Per bank write bursts
system.mem_ctrls.perBankRdBursts::9             86653                       # Per bank write bursts
system.mem_ctrls.perBankRdBursts::10            90601                       # Per bank write bursts
system.mem_ctrls.perBankRdBursts::11            86054                       # Per bank write bursts
system.mem_ctrls.perBankRdBursts::12            89202                       # Per bank write bursts
system.mem_ctrls.perBankRdBursts::13            92155                       # Per bank write bursts
system.mem_ctrls.perBankRdBursts::14            95945                       # Per bank write bursts
system.mem_ctrls.perBankRdBursts::15            94820                       # Per bank write bursts
system.mem_ctrls.perBankWrBursts::0             48515                       # Per bank write bursts
system.mem_ctrls.perBankWrBursts::1             50639                       # Per bank write bursts
system.mem_ctrls.perBankWrBursts::2             44331                       # Per bank write bursts
system.mem_ctrls.perBankWrBursts::3             43319                       # Per bank write bursts
system.mem_ctrls.perBankWrBursts::4             43435                       # Per bank write bursts
system.mem_ctrls.perBankWrBursts::5             43110                       # Per bank write bursts
system.mem_ctrls.perBankWrBursts::6             45517                       # Per bank write bursts
system.mem_ctrls.perBankWrBursts::7             44408                       # Per bank write bursts
system.mem_ctrls.perBankWrBursts::8             44850                       # Per bank write bursts
system.mem_ctrls.perBankWrBursts::9             44547                       # Per bank write bursts
system.mem_ctrls.perBankWrBursts::10            44986                       # Per bank write bursts
system.mem_ctrls.perBankWrBursts::11            44187                       # Per bank write bursts
system.mem_ctrls.perBankWrBursts::12            46290                       # Per bank write bursts
system.mem_ctrls.perBankWrBursts::13            47242                       # Per bank write bursts
system.mem_ctrls.perBankWrBursts::14            48345                       # Per bank write bursts
system.mem_ctrls.perBankWrBursts::15            48619                       # Per bank write bursts
system.mem_ctrls.numRdRetry                         0                       # Number of times read queue was full causing retry
system.mem_ctrls.numWrRetry                         0                       # Number of times write queue was full causing retry
system.mem_ctrls.totGap                  3150189265500                       # Total gap between requests
system.mem_ctrls.readPktSize::0                     0                       # Read request sizes (log2)
system.mem_ctrls.readPktSize::1                     0                       # Read request sizes (log2)
system.mem_ctrls.readPktSize::2                     0                       # Read request sizes (log2)
system.mem_ctrls.readPktSize::3                     0                       # Read request sizes (log2)
system.mem_ctrls.readPktSize::4                     0                       # Read request sizes (log2)
system.mem_ctrls.readPktSize::5                     0                       # Read request sizes (log2)
system.mem_ctrls.readPktSize::6               1437828                       # Read request sizes (log2)
system.mem_ctrls.writePktSize::0                    0                       # Write request sizes (log2)
system.mem_ctrls.writePktSize::1                    0                       # Write request sizes (log2)
system.mem_ctrls.writePktSize::2                    0                       # Write request sizes (log2)
system.mem_ctrls.writePktSize::3                    0                       # Write request sizes (log2)
system.mem_ctrls.writePktSize::4                    0                       # Write request sizes (log2)
system.mem_ctrls.writePktSize::5                    0                       # Write request sizes (log2)
system.mem_ctrls.writePktSize::6               732340                       # Write request sizes (log2)
system.mem_ctrls.rdQLenPdf::0                 1431148                       # What read queue length does an incoming req see
system.mem_ctrls.rdQLenPdf::1                    2350                       # What read queue length does an incoming req see
system.mem_ctrls.rdQLenPdf::2                      29                       # What read queue length does an incoming req see
system.mem_ctrls.rdQLenPdf::3                       0                       # What read queue length does an incoming req see
system.mem_ctrls.rdQLenPdf::4                       0                       # What read queue length does an incoming req see
system.mem_ctrls.rdQLenPdf::5                       0                       # What read queue length does an incoming req see
system.mem_ctrls.rdQLenPdf::6                       0                       # What read queue length does an incoming req see
system.mem_ctrls.rdQLenPdf::7                       0                       # What read queue length does an incoming req see
system.mem_ctrls.rdQLenPdf::8                       0                       # What read queue length does an incoming req see
system.mem_ctrls.rdQLenPdf::9                       0                       # What read queue length does an incoming req see
system.mem_ctrls.rdQLenPdf::10                      0                       # What read queue length does an incoming req see
system.mem_ctrls.rdQLenPdf::11                      0                       # What read queue length does an incoming req see
system.mem_ctrls.rdQLenPdf::12                      0                       # What read queue length does an incoming req see
system.mem_ctrls.rdQLenPdf::13                      0                       # What read queue length does an incoming req see
system.mem_ctrls.rdQLenPdf::14                      0                       # What read queue length does an incoming req see
system.mem_ctrls.rdQLenPdf::15                      0                       # What read queue length does an incoming req see
system.mem_ctrls.rdQLenPdf::16                      0                       # What read queue length does an incoming req see
system.mem_ctrls.rdQLenPdf::17                      0                       # What read queue length does an incoming req see
system.mem_ctrls.rdQLenPdf::18                      0                       # What read queue length does an incoming req see
system.mem_ctrls.rdQLenPdf::19                      0                       # What read queue length does an incoming req see
system.mem_ctrls.rdQLenPdf::20                      0                       # What read queue length does an incoming req see
system.mem_ctrls.rdQLenPdf::21                      0                       # What read queue length does an incoming req see
system.mem_ctrls.rdQLenPdf::22                      0                       # What read queue length does an incoming req see
system.mem_ctrls.rdQLenPdf::23                      0                       # What read queue length does an incoming req see
system.mem_ctrls.rdQLenPdf::24                      0                       # What read queue length does an incoming req see
system.mem_ctrls.rdQLenPdf::25                      0                       # What read queue length does an incoming req see
system.mem_ctrls.rdQLenPdf::26                      0                       # What read queue length does an incoming req see
system.mem_ctrls.rdQLenPdf::27                      0                       # What read queue length does an incoming req see
system.mem_ctrls.rdQLenPdf::28                      0                       # What read queue length does an incoming req see
system.mem_ctrls.rdQLenPdf::29                      0                       # What read queue length does an incoming req see
system.mem_ctrls.rdQLenPdf::30                      0                       # What read queue length does an incoming req see
system.mem_ctrls.rdQLenPdf::31                      0                       # What read queue length does an incoming req see
system.mem_ctrls.wrQLenPdf::0                       0                       # What write queue length does an incoming req see
system.mem_ctrls.wrQLenPdf::1                       0                       # What write queue length does an incoming req see
system.mem_ctrls.wrQLenPdf::2                       0                       # What write queue length does an incoming req see
system.mem_ctrls.wrQLenPdf::3                       0                       # What write queue length does an incoming req see
system.mem_ctrls.wrQLenPdf::4                       0                       # What write queue length does an incoming req see
system.mem_ctrls.wrQLenPdf::5                       0                       # What write queue length does an incoming req see
system.mem_ctrls.wrQLenPdf::6                       0                       # What write queue length does an incoming req see
system.mem_ctrls.wrQLenPdf::7                       0                       # What write queue length does an incoming req see
system.mem_ctrls.wrQLenPdf::8                       0                       # What write queue length does an incoming req see
system.mem_ctrls.wrQLenPdf::9                       0                       # What write queue length does an incoming req see
system.mem_ctrls.wrQLenPdf::10                      0                       # What write queue length does an incoming req see
system.mem_ctrls.wrQLenPdf::11                      0                       # What write queue length does an incoming req see
system.mem_ctrls.wrQLenPdf::12                      0                       # What write queue length does an incoming req see
system.mem_ctrls.wrQLenPdf::13                      0                       # What write queue length does an incoming req see
system.mem_ctrls.wrQLenPdf::14                      0                       # What write queue length does an incoming req see
system.mem_ctrls.wrQLenPdf::15                  22581                       # What write queue length does an incoming req see
system.mem_ctrls.wrQLenPdf::16                  24325                       # What write queue length does an incoming req see
system.mem_ctrls.wrQLenPdf::17                  35767                       # What write queue length does an incoming req see
system.mem_ctrls.wrQLenPdf::18                  43627                       # What write queue length does an incoming req see
system.mem_ctrls.wrQLenPdf::19                  44058                       # What write queue length does an incoming req see
system.mem_ctrls.wrQLenPdf::20                  44124                       # What write queue length does an incoming req see
system.mem_ctrls.wrQLenPdf::21                  43835                       # What write queue length does an incoming req see
system.mem_ctrls.wrQLenPdf::22                  43421                       # What write queue length does an incoming req see
system.mem_ctrls.wrQLenPdf::23                  43362                       # What write queue length does an incoming req see
system.mem_ctrls.wrQLenPdf::24                  43215                       # What write queue length does an incoming req see
system.mem_ctrls.wrQLenPdf::25                  43145                       # What write queue length does an incoming req see
system.mem_ctrls.wrQLenPdf::26                  43178                       # What write queue length does an incoming req see
system.mem_ctrls.wrQLenPdf::27                  43207                       # What write queue length does an incoming req see
system.mem_ctrls.wrQLenPdf::28                  43010                       # What write queue length does an incoming req see
system.mem_ctrls.wrQLenPdf::29                  43109                       # What write queue length does an incoming req see
system.mem_ctrls.wrQLenPdf::30                  42689                       # What write queue length does an incoming req see
system.mem_ctrls.wrQLenPdf::31                  42660                       # What write queue length does an incoming req see
system.mem_ctrls.wrQLenPdf::32                  42850                       # What write queue length does an incoming req see
system.mem_ctrls.wrQLenPdf::33                    119                       # What write queue length does an incoming req see
system.mem_ctrls.wrQLenPdf::34                     31                       # What write queue length does an incoming req see
system.mem_ctrls.wrQLenPdf::35                     12                       # What write queue length does an incoming req see
system.mem_ctrls.wrQLenPdf::36                      7                       # What write queue length does an incoming req see
system.mem_ctrls.wrQLenPdf::37                      5                       # What write queue length does an incoming req see
system.mem_ctrls.wrQLenPdf::38                      2                       # What write queue length does an incoming req see
system.mem_ctrls.wrQLenPdf::39                      1                       # What write queue length does an incoming req see
system.mem_ctrls.wrQLenPdf::40                      0                       # What write queue length does an incoming req see
system.mem_ctrls.wrQLenPdf::41                      0                       # What write queue length does an incoming req see
system.mem_ctrls.wrQLenPdf::42                      0                       # What write queue length does an incoming req see
system.mem_ctrls.wrQLenPdf::43                      0                       # What write queue length does an incoming req see
system.mem_ctrls.wrQLenPdf::44                      0                       # What write queue length does an incoming req see
system.mem_ctrls.wrQLenPdf::45                      0                       # What write queue length does an incoming req see
system.mem_ctrls.wrQLenPdf::46                      0                       # What write queue length does an incoming req see
system.mem_ctrls.wrQLenPdf::47                      0                       # What write queue length does an incoming req see
system.mem_ctrls.wrQLenPdf::48                      0                       # What write queue length does an incoming req see
system.mem_ctrls.wrQLenPdf::49                      0                       # What write queue length does an incoming req see
system.mem_ctrls.wrQLenPdf::50                      0                       # What write queue length does an incoming req see
system.mem_ctrls.wrQLenPdf::51                      0                       # What write queue length does an incoming req see
system.mem_ctrls.wrQLenPdf::52                      0                       # What write queue length does an incoming req see
system.mem_ctrls.wrQLenPdf::53                      0                       # What write queue length does an incoming req see
system.mem_ctrls.wrQLenPdf::54                      0                       # What write queue length does an incoming req see
system.mem_ctrls.wrQLenPdf::55                      0                       # What write queue length does an incoming req see
system.mem_ctrls.wrQLenPdf::56                      0                       # What write queue length does an incoming req see
system.mem_ctrls.wrQLenPdf::57                      0                       # What write queue length does an incoming req see
system.mem_ctrls.wrQLenPdf::58                      0                       # What write queue length does an incoming req see
system.mem_ctrls.wrQLenPdf::59                      0                       # What write queue length does an incoming req see
system.mem_ctrls.wrQLenPdf::60                      0                       # What write queue length does an incoming req see
system.mem_ctrls.wrQLenPdf::61                      0                       # What write queue length does an incoming req see
system.mem_ctrls.wrQLenPdf::62                      0                       # What write queue length does an incoming req see
system.mem_ctrls.wrQLenPdf::63                      0                       # What write queue length does an incoming req see
system.mem_ctrls.bytesPerActivate::samples      1250436                       # Bytes accessed per row activation
system.mem_ctrls.bytesPerActivate::mean    110.853827                       # Bytes accessed per row activation
system.mem_ctrls.bytesPerActivate::gmean    84.721568                       # Bytes accessed per row activation
system.mem_ctrls.bytesPerActivate::stdev   143.217328                       # Bytes accessed per row activation
system.mem_ctrls.bytesPerActivate::0-127       925033     73.98%     73.98% # Bytes accessed per row activation
system.mem_ctrls.bytesPerActivate::128-255       244867     19.58%     93.56% # Bytes accessed per row activation
system.mem_ctrls.bytesPerActivate::256-383        27831      2.23%     95.79% # Bytes accessed per row activation
system.mem_ctrls.bytesPerActivate::384-511        12594      1.01%     96.79% # Bytes accessed per row activation
system.mem_ctrls.bytesPerActivate::512-639         9190      0.73%     97.53% # Bytes accessed per row activation
system.mem_ctrls.bytesPerActivate::640-767         7827      0.63%     98.15% # Bytes accessed per row activation
system.mem_ctrls.bytesPerActivate::768-895         4492      0.36%     98.51% # Bytes accessed per row activation
system.mem_ctrls.bytesPerActivate::896-1023         2567      0.21%     98.72% # Bytes accessed per row activation
system.mem_ctrls.bytesPerActivate::1024-1151        16035      1.28%    100.00% # Bytes accessed per row activation
system.mem_ctrls.bytesPerActivate::total      1250436                       # Bytes accessed per row activation
system.mem_ctrls.rdPerTurnAround::samples        42646                       # Reads before turning the bus around for writes
system.mem_ctrls.rdPerTurnAround::mean      33.973456                       # Reads before turning the bus around for writes
system.mem_ctrls.rdPerTurnAround::stdev     97.560950                       # Reads before turning the bus around for writes
system.mem_ctrls.rdPerTurnAround::0-1023        42640     99.99%     99.99% # Reads before turning the bus around for writes
system.mem_ctrls.rdPerTurnAround::1024-2047            4      0.01%    100.00% # Reads before turning the bus around for writes
system.mem_ctrls.rdPerTurnAround::4096-5119            1      0.00%    100.00% # Reads before turning the bus around for writes
system.mem_ctrls.rdPerTurnAround::18432-19455            1      0.00%    100.00% # Reads before turning the bus around for writes
system.mem_ctrls.rdPerTurnAround::total         42646                       # Reads before turning the bus around for writes
system.mem_ctrls.wrPerTurnAround::samples        42646                       # Writes before turning the bus around for reads
system.mem_ctrls.wrPerTurnAround::mean      17.172537                       # Writes before turning the bus around for reads
system.mem_ctrls.wrPerTurnAround::gmean     17.138394                       # Writes before turning the bus around for reads
system.mem_ctrls.wrPerTurnAround::stdev      1.086142                       # Writes before turning the bus around for reads
system.mem_ctrls.wrPerTurnAround::16            18393     43.13%     43.13% # Writes before turning the bus around for reads
system.mem_ctrls.wrPerTurnAround::17             1355      3.18%     46.31% # Writes before turning the bus around for reads
system.mem_ctrls.wrPerTurnAround::18            20572     48.24%     94.55% # Writes before turning the bus around for reads
system.mem_ctrls.wrPerTurnAround::19             1969      4.62%     99.16% # Writes before turning the bus around for reads
system.mem_ctrls.wrPerTurnAround::20              265      0.62%     99.78% # Writes before turning the bus around for reads
system.mem_ctrls.wrPerTurnAround::21               55      0.13%     99.91% # Writes before turning the bus around for reads
system.mem_ctrls.wrPerTurnAround::22               17      0.04%     99.95% # Writes before turning the bus around for reads
system.mem_ctrls.wrPerTurnAround::23               10      0.02%     99.98% # Writes before turning the bus around for reads
system.mem_ctrls.wrPerTurnAround::24                5      0.01%     99.99% # Writes before turning the bus around for reads
system.mem_ctrls.wrPerTurnAround::25                3      0.01%    100.00% # Writes before turning the bus around for reads
system.mem_ctrls.wrPerTurnAround::26                1      0.00%    100.00% # Writes before turning the bus around for reads
system.mem_ctrls.wrPerTurnAround::30                1      0.00%    100.00% # Writes before turning the bus around for reads
system.mem_ctrls.wrPerTurnAround::total         42646                       # Writes before turning the bus around for reads
system.mem_ctrls.totQLat                  18786228484                       # Total ticks spent queuing
system.mem_ctrls.totMemAccLat             45664859734                       # Total ticks spent from burst creation until serviced by the DRAM
system.mem_ctrls.totBusLat                 7167635000                       # Total ticks spent in databus transfers
system.mem_ctrls.avgQLat                     13104.90                       # Average queueing delay per DRAM burst
system.mem_ctrls.avgBusLat                    5000.00                       # Average bus latency per DRAM burst
system.mem_ctrls.avgMemAccLat                31854.90                       # Average memory access latency per DRAM burst
system.mem_ctrls.avgRdBW                        29.12                       # Average DRAM read bandwidth in MiByte/s
system.mem_ctrls.avgWrBW                        14.88                       # Average achieved write bandwidth in MiByte/s
system.mem_ctrls.avgRdBWSys                     29.21                       # Average system read bandwidth in MiByte/s
system.mem_ctrls.avgWrBWSys                     14.88                       # Average system write bandwidth in MiByte/s
system.mem_ctrls.peakBW                      12800.00                       # Theoretical peak bandwidth in MiByte/s
system.mem_ctrls.busUtil                         0.34                       # Data bus utilization in percentage
system.mem_ctrls.busUtilRead                     0.23                       # Data bus utilization in percentage for reads
system.mem_ctrls.busUtilWrite                    0.12                       # Data bus utilization in percentage for writes
system.mem_ctrls.avgRdQLen                       1.00                       # Average read queue length when enqueuing
system.mem_ctrls.avgWrQLen                      24.60                       # Average write queue length when enqueuing
system.mem_ctrls.readRowHits                   745931                       # Number of row buffer hits during reads
system.mem_ctrls.writeRowHits                  169500                       # Number of row buffer hits during writes
system.mem_ctrls.readRowHitRate                 52.03                       # Row buffer hit rate for reads
system.mem_ctrls.writeRowHitRate                23.14                       # Row buffer hit rate for writes
system.mem_ctrls.avgGap                    1451587.74                       # Average gap between requests
system.mem_ctrls.pageHitRate                    42.27                       # Row buffer hit rate, read and write combined
system.mem_ctrls_0.actEnergy               4679912160                       # Energy for activate commands per rank (pJ)
system.mem_ctrls_0.preEnergy               2553523500                       # Energy for precharge commands per rank (pJ)
system.mem_ctrls_0.readEnergy              5604144000                       # Energy for read commands per rank (pJ)
system.mem_ctrls_0.writeEnergy             2354015520                       # Energy for write commands per rank (pJ)
system.mem_ctrls_0.refreshEnergy         205979005440                       # Energy for refresh commands per rank (pJ)
system.mem_ctrls_0.actBackEnergy         392080580190                       # Energy for active background per rank (pJ)
system.mem_ctrls_0.preBackEnergy         1548240694500                       # Energy for precharge background per rank (pJ)
system.mem_ctrls_0.totalEnergy           2161491875310                       # Total energy per rank (pJ)
system.mem_ctrls_0.averagePower            685.400583                       # Core power per rank (mW)
system.mem_ctrls_0.memoryStateTime::IDLE 2572099972750                       # Time in different power states
system.mem_ctrls_0.memoryStateTime::REF  105191840000                       # Time in different power states
system.mem_ctrls_0.memoryStateTime::PRE_PDN            0                       # Time in different power states
system.mem_ctrls_0.memoryStateTime::ACT  472898856250                       # Time in different power states
system.mem_ctrls_0.memoryStateTime::ACT_PDN            0                       # Time in different power states
system.mem_ctrls_1.actEnergy               4802981400                       # Energy for activate commands per rank (pJ)
system.mem_ctrls_1.preEnergy               2620674375                       # Energy for precharge commands per rank (pJ)
system.mem_ctrls_1.readEnergy              5697127800                       # Energy for read commands per rank (pJ)
system.mem_ctrls_1.writeEnergy             2391547680                       # Energy for write commands per rank (pJ)
system.mem_ctrls_1.refreshEnergy         205979005440                       # Energy for refresh commands per rank (pJ)
system.mem_ctrls_1.actBackEnergy         397214056620                       # Energy for active background per rank (pJ)
system.mem_ctrls_1.preBackEnergy         1543737645000                       # Energy for precharge background per rank (pJ)
system.mem_ctrls_1.totalEnergy           2162443038315                       # Total energy per rank (pJ)
system.mem_ctrls_1.averagePower            685.702193                       # Core power per rank (mW)
system.mem_ctrls_1.memoryStateTime::IDLE 2564703186750                       # Time in different power states
system.mem_ctrls_1.memoryStateTime::REF  105191840000                       # Time in different power states
system.mem_ctrls_1.memoryStateTime::PRE_PDN            0                       # Time in different power states
system.mem_ctrls_1.memoryStateTime::ACT  480297143250                       # Time in different power states
system.mem_ctrls_1.memoryStateTime::ACT_PDN            0                       # Time in different power states
system.cpu_voltage_domain.voltage                   1                       # Voltage in Volts
system.cpu_clk_domain.clock                       500                       # Clock period in ticks
system.cpu0.apic_clk_domain.clock                8000                       # Clock period in ticks
system.cpu0.numCycles                      6303549164                       # number of cpu cycles simulated
system.cpu0.numWorkItemsStarted                     0                       # number of work items this cpu started
system.cpu0.numWorkItemsCompleted                   0                       # number of work items this cpu completed
system.cpu0.kern.inst.arm                           0                       # number of arm instructions executed
system.cpu0.kern.inst.quiesce                       0                       # number of quiesce instructions executed
system.cpu0.committedInsts                    5143593                       # Number of instructions committed
system.cpu0.committedOps                     10383051                       # Number of ops (including micro ops) committed
system.cpu0.num_int_alu_accesses             10217713                       # Number of integer alu accesses
system.cpu0.num_fp_alu_accesses                 16079                       # Number of float alu accesses
system.cpu0.num_func_calls                     246744                       # number of times a function call or return occured
system.cpu0.num_conditional_control_insts       760187                       # number of instructions that are conditional controls
system.cpu0.num_int_insts                    10217713                       # number of integer instructions
system.cpu0.num_fp_insts                        16079                       # number of float instructions
system.cpu0.num_int_register_reads           20461638                       # number of times the integer registers were read
system.cpu0.num_int_register_writes           8319074                       # number of times the integer registers were written
system.cpu0.num_fp_register_reads               26099                       # number of times the floating registers were read
system.cpu0.num_fp_register_writes              12713                       # number of times the floating registers were written
system.cpu0.num_cc_register_reads             5657874                       # number of times the CC registers were read
system.cpu0.num_cc_register_writes            3391539                       # number of times the CC registers were written
system.cpu0.num_mem_refs                      2357150                       # number of memory refs
system.cpu0.num_load_insts                    1407686                       # Number of load instructions
system.cpu0.num_store_insts                    949464                       # Number of store instructions
system.cpu0.num_idle_cycles              6281519478.165195                       # Number of idle cycles
system.cpu0.num_busy_cycles              22029685.834806                       # Number of busy cycles
system.cpu0.not_idle_fraction                0.003495                       # Percentage of non-idle cycles
system.cpu0.idle_fraction                    0.996505                       # Percentage of idle cycles
system.cpu0.Branches                          1119498                       # Number of branches fetched
system.cpu0.op_class::No_OpClass               113322      1.09%      1.09% # Class of executed instruction
system.cpu0.op_class::IntAlu                  7851729     75.62%     76.71% # Class of executed instruction
system.cpu0.op_class::IntMult                   13206      0.13%     76.84% # Class of executed instruction
system.cpu0.op_class::IntDiv                    35891      0.35%     77.18% # Class of executed instruction
system.cpu0.op_class::FloatAdd                  12016      0.12%     77.30% # Class of executed instruction
system.cpu0.op_class::FloatCmp                      0      0.00%     77.30% # Class of executed instruction
system.cpu0.op_class::FloatCvt                     48      0.00%     77.30% # Class of executed instruction
system.cpu0.op_class::FloatMult                     0      0.00%     77.30% # Class of executed instruction
system.cpu0.op_class::FloatDiv                      0      0.00%     77.30% # Class of executed instruction
system.cpu0.op_class::FloatSqrt                     0      0.00%     77.30% # Class of executed instruction
system.cpu0.op_class::SimdAdd                       0      0.00%     77.30% # Class of executed instruction
system.cpu0.op_class::SimdAddAcc                    0      0.00%     77.30% # Class of executed instruction
system.cpu0.op_class::SimdAlu                       0      0.00%     77.30% # Class of executed instruction
system.cpu0.op_class::SimdCmp                       0      0.00%     77.30% # Class of executed instruction
system.cpu0.op_class::SimdCvt                       0      0.00%     77.30% # Class of executed instruction
system.cpu0.op_class::SimdMisc                      0      0.00%     77.30% # Class of executed instruction
system.cpu0.op_class::SimdMult                      0      0.00%     77.30% # Class of executed instruction
system.cpu0.op_class::SimdMultAcc                   0      0.00%     77.30% # Class of executed instruction
system.cpu0.op_class::SimdShift                     0      0.00%     77.30% # Class of executed instruction
system.cpu0.op_class::SimdShiftAcc                  0      0.00%     77.30% # Class of executed instruction
system.cpu0.op_class::SimdSqrt                      0      0.00%     77.30% # Class of executed instruction
system.cpu0.op_class::SimdFloatAdd                  0      0.00%     77.30% # Class of executed instruction
system.cpu0.op_class::SimdFloatAlu                  0      0.00%     77.30% # Class of executed instruction
system.cpu0.op_class::SimdFloatCmp                  0      0.00%     77.30% # Class of executed instruction
system.cpu0.op_class::SimdFloatCvt                  0      0.00%     77.30% # Class of executed instruction
system.cpu0.op_class::SimdFloatDiv                  0      0.00%     77.30% # Class of executed instruction
system.cpu0.op_class::SimdFloatMisc                 0      0.00%     77.30% # Class of executed instruction
system.cpu0.op_class::SimdFloatMult                 0      0.00%     77.30% # Class of executed instruction
system.cpu0.op_class::SimdFloatMultAcc              0      0.00%     77.30% # Class of executed instruction
system.cpu0.op_class::SimdFloatSqrt                 0      0.00%     77.30% # Class of executed instruction
system.cpu0.op_class::MemRead                 1407686     13.56%     90.86% # Class of executed instruction
system.cpu0.op_class::MemWrite                 949464      9.14%    100.00% # Class of executed instruction
system.cpu0.op_class::IprAccess                     0      0.00%    100.00% # Class of executed instruction
system.cpu0.op_class::InstPrefetch                  0      0.00%    100.00% # Class of executed instruction
system.cpu0.op_class::total                  10383362                       # Class of executed instruction
system.cpu1.apic_clk_domain.clock                8000                       # Clock period in ticks
system.cpu1.numCycles                      6299002403                       # number of cpu cycles simulated
system.cpu1.numWorkItemsStarted                     0                       # number of work items this cpu started
system.cpu1.numWorkItemsCompleted                   0                       # number of work items this cpu completed
system.cpu1.kern.inst.arm                           0                       # number of arm instructions executed
system.cpu1.kern.inst.quiesce                       0                       # number of quiesce instructions executed
system.cpu1.committedInsts                 1799238774                       # Number of instructions committed
system.cpu1.committedOps                   2518364497                       # Number of ops (including micro ops) committed
system.cpu1.num_int_alu_accesses           1103660525                       # Number of integer alu accesses
system.cpu1.num_fp_alu_accesses            1704071073                       # Number of float alu accesses
system.cpu1.num_func_calls                    4003554                       # number of times a function call or return occured
system.cpu1.num_conditional_control_insts    101376252                       # number of instructions that are conditional controls
system.cpu1.num_int_insts                  1103660525                       # number of integer instructions
system.cpu1.num_fp_insts                   1704071073                       # number of float instructions
system.cpu1.num_int_register_reads         2219942594                       # number of times the integer registers were read
system.cpu1.num_int_register_writes         671165108                       # number of times the integer registers were written
system.cpu1.num_fp_register_reads          3683603856                       # number of times the floating registers were read
system.cpu1.num_fp_register_writes         1663717079                       # number of times the floating registers were written
system.cpu1.num_cc_register_reads           596103231                       # number of times the CC registers were read
system.cpu1.num_cc_register_writes          348035639                       # number of times the CC registers were written
system.cpu1.num_mem_refs                    329821775                       # number of memory refs
system.cpu1.num_load_insts                  284971144                       # Number of load instructions
system.cpu1.num_store_insts                  44850631                       # Number of store instructions
system.cpu1.num_idle_cycles              15389772.898173                       # Number of idle cycles
system.cpu1.num_busy_cycles              6283612630.101827                       # Number of busy cycles
system.cpu1.not_idle_fraction                0.997557                       # Percentage of non-idle cycles
system.cpu1.idle_fraction                    0.002443                       # Percentage of idle cycles
system.cpu1.Branches                        132048509                       # Number of branches fetched
system.cpu1.op_class::No_OpClass              1848930      0.07%      0.07% # Class of executed instruction
system.cpu1.op_class::IntAlu               1350174796     53.61%     53.69% # Class of executed instruction
system.cpu1.op_class::IntMult                   77483      0.00%     53.69% # Class of executed instruction
system.cpu1.op_class::IntDiv                    78698      0.00%     53.69% # Class of executed instruction
system.cpu1.op_class::FloatAdd              836371508     33.21%     86.90% # Class of executed instruction
system.cpu1.op_class::FloatCmp                      0      0.00%     86.90% # Class of executed instruction
system.cpu1.op_class::FloatCvt                     16      0.00%     86.90% # Class of executed instruction
system.cpu1.op_class::FloatMult                     0      0.00%     86.90% # Class of executed instruction
system.cpu1.op_class::FloatDiv                      0      0.00%     86.90% # Class of executed instruction
system.cpu1.op_class::FloatSqrt                     0      0.00%     86.90% # Class of executed instruction
system.cpu1.op_class::SimdAdd                       0      0.00%     86.90% # Class of executed instruction
system.cpu1.op_class::SimdAddAcc                    0      0.00%     86.90% # Class of executed instruction
system.cpu1.op_class::SimdAlu                       0      0.00%     86.90% # Class of executed instruction
system.cpu1.op_class::SimdCmp                       0      0.00%     86.90% # Class of executed instruction
system.cpu1.op_class::SimdCvt                       0      0.00%     86.90% # Class of executed instruction
system.cpu1.op_class::SimdMisc                      0      0.00%     86.90% # Class of executed instruction
system.cpu1.op_class::SimdMult                      0      0.00%     86.90% # Class of executed instruction
system.cpu1.op_class::SimdMultAcc                   0      0.00%     86.90% # Class of executed instruction
system.cpu1.op_class::SimdShift                     0      0.00%     86.90% # Class of executed instruction
system.cpu1.op_class::SimdShiftAcc                  0      0.00%     86.90% # Class of executed instruction
system.cpu1.op_class::SimdSqrt                      0      0.00%     86.90% # Class of executed instruction
system.cpu1.op_class::SimdFloatAdd                  0      0.00%     86.90% # Class of executed instruction
system.cpu1.op_class::SimdFloatAlu                  0      0.00%     86.90% # Class of executed instruction
system.cpu1.op_class::SimdFloatCmp                  0      0.00%     86.90% # Class of executed instruction
system.cpu1.op_class::SimdFloatCvt                  0      0.00%     86.90% # Class of executed instruction
system.cpu1.op_class::SimdFloatDiv                  0      0.00%     86.90% # Class of executed instruction
system.cpu1.op_class::SimdFloatMisc                 0      0.00%     86.90% # Class of executed instruction
system.cpu1.op_class::SimdFloatMult                 0      0.00%     86.90% # Class of executed instruction
system.cpu1.op_class::SimdFloatMultAcc              0      0.00%     86.90% # Class of executed instruction
system.cpu1.op_class::SimdFloatSqrt                 0      0.00%     86.90% # Class of executed instruction
system.cpu1.op_class::MemRead               284971144     11.32%     98.22% # Class of executed instruction
system.cpu1.op_class::MemWrite               44850631      1.78%    100.00% # Class of executed instruction
system.cpu1.op_class::IprAccess                     0      0.00%    100.00% # Class of executed instruction
system.cpu1.op_class::InstPrefetch                  0      0.00%    100.00% # Class of executed instruction
system.cpu1.op_class::total                2518373206                       # Class of executed instruction
system.cpu2.apic_clk_domain.clock                8000                       # Clock period in ticks
system.cpu2.numCycles                      6301893890                       # number of cpu cycles simulated
system.cpu2.numWorkItemsStarted                     0                       # number of work items this cpu started
system.cpu2.numWorkItemsCompleted                   0                       # number of work items this cpu completed
system.cpu2.kern.inst.arm                           0                       # number of arm instructions executed
system.cpu2.kern.inst.quiesce                       0                       # number of quiesce instructions executed
system.cpu2.committedInsts                    3403001                       # Number of instructions committed
system.cpu2.committedOps                      6998934                       # Number of ops (including micro ops) committed
system.cpu2.num_int_alu_accesses              6861134                       # Number of integer alu accesses
system.cpu2.num_fp_alu_accesses                  3564                       # Number of float alu accesses
system.cpu2.num_func_calls                     182504                       # number of times a function call or return occured
system.cpu2.num_conditional_control_insts       508303                       # number of instructions that are conditional controls
system.cpu2.num_int_insts                     6861134                       # number of integer instructions
system.cpu2.num_fp_insts                         3564                       # number of float instructions
system.cpu2.num_int_register_reads           13958428                       # number of times the integer registers were read
system.cpu2.num_int_register_writes           5627901                       # number of times the integer registers were written
system.cpu2.num_fp_register_reads                5623                       # number of times the floating registers were read
system.cpu2.num_fp_register_writes               2757                       # number of times the floating registers were written
system.cpu2.num_cc_register_reads             3905495                       # number of times the CC registers were read
system.cpu2.num_cc_register_writes            2174394                       # number of times the CC registers were written
system.cpu2.num_mem_refs                      1678108                       # number of memory refs
system.cpu2.num_load_insts                    1035587                       # Number of load instructions
system.cpu2.num_store_insts                    642521                       # Number of store instructions
system.cpu2.num_idle_cycles              6286563237.516879                       # Number of idle cycles
system.cpu2.num_busy_cycles              15330652.483120                       # Number of busy cycles
system.cpu2.not_idle_fraction                0.002433                       # Percentage of non-idle cycles
system.cpu2.idle_fraction                    0.997567                       # Percentage of idle cycles
system.cpu2.Branches                           750844                       # Number of branches fetched
system.cpu2.op_class::No_OpClass               101894      1.46%      1.46% # Class of executed instruction
system.cpu2.op_class::IntAlu                  5172006     73.89%     75.35% # Class of executed instruction
system.cpu2.op_class::IntMult                   11170      0.16%     75.51% # Class of executed instruction
system.cpu2.op_class::IntDiv                    33396      0.48%     75.99% # Class of executed instruction
system.cpu2.op_class::FloatAdd                   2566      0.04%     76.02% # Class of executed instruction
system.cpu2.op_class::FloatCmp                      0      0.00%     76.02% # Class of executed instruction
system.cpu2.op_class::FloatCvt                     32      0.00%     76.02% # Class of executed instruction
system.cpu2.op_class::FloatMult                     0      0.00%     76.02% # Class of executed instruction
system.cpu2.op_class::FloatDiv                      0      0.00%     76.02% # Class of executed instruction
system.cpu2.op_class::FloatSqrt                     0      0.00%     76.02% # Class of executed instruction
system.cpu2.op_class::SimdAdd                       0      0.00%     76.02% # Class of executed instruction
system.cpu2.op_class::SimdAddAcc                    0      0.00%     76.02% # Class of executed instruction
system.cpu2.op_class::SimdAlu                       0      0.00%     76.02% # Class of executed instruction
system.cpu2.op_class::SimdCmp                       0      0.00%     76.02% # Class of executed instruction
system.cpu2.op_class::SimdCvt                       0      0.00%     76.02% # Class of executed instruction
system.cpu2.op_class::SimdMisc                      0      0.00%     76.02% # Class of executed instruction
system.cpu2.op_class::SimdMult                      0      0.00%     76.02% # Class of executed instruction
system.cpu2.op_class::SimdMultAcc                   0      0.00%     76.02% # Class of executed instruction
system.cpu2.op_class::SimdShift                     0      0.00%     76.02% # Class of executed instruction
system.cpu2.op_class::SimdShiftAcc                  0      0.00%     76.02% # Class of executed instruction
system.cpu2.op_class::SimdSqrt                      0      0.00%     76.02% # Class of executed instruction
system.cpu2.op_class::SimdFloatAdd                  0      0.00%     76.02% # Class of executed instruction
system.cpu2.op_class::SimdFloatAlu                  0      0.00%     76.02% # Class of executed instruction
system.cpu2.op_class::SimdFloatCmp                  0      0.00%     76.02% # Class of executed instruction
system.cpu2.op_class::SimdFloatCvt                  0      0.00%     76.02% # Class of executed instruction
system.cpu2.op_class::SimdFloatDiv                  0      0.00%     76.02% # Class of executed instruction
system.cpu2.op_class::SimdFloatMisc                 0      0.00%     76.02% # Class of executed instruction
system.cpu2.op_class::SimdFloatMult                 0      0.00%     76.02% # Class of executed instruction
system.cpu2.op_class::SimdFloatMultAcc              0      0.00%     76.02% # Class of executed instruction
system.cpu2.op_class::SimdFloatSqrt                 0      0.00%     76.02% # Class of executed instruction
system.cpu2.op_class::MemRead                 1035587     14.80%     90.82% # Class of executed instruction
system.cpu2.op_class::MemWrite                 642521      9.18%    100.00% # Class of executed instruction
system.cpu2.op_class::IprAccess                     0      0.00%    100.00% # Class of executed instruction
system.cpu2.op_class::InstPrefetch                  0      0.00%    100.00% # Class of executed instruction
system.cpu2.op_class::total                   6999172                       # Class of executed instruction
system.cpu3.apic_clk_domain.clock                8000                       # Clock period in ticks
system.cpu3.numCycles                      6298916911                       # number of cpu cycles simulated
system.cpu3.numWorkItemsStarted                     0                       # number of work items this cpu started
system.cpu3.numWorkItemsCompleted                   0                       # number of work items this cpu completed
system.cpu3.kern.inst.arm                           0                       # number of arm instructions executed
system.cpu3.kern.inst.quiesce                       0                       # number of quiesce instructions executed
system.cpu3.committedInsts                    2684768                       # Number of instructions committed
system.cpu3.committedOps                      5683267                       # Number of ops (including micro ops) committed
system.cpu3.num_int_alu_accesses              5557109                       # Number of integer alu accesses
system.cpu3.num_fp_alu_accesses                  7516                       # Number of float alu accesses
system.cpu3.num_func_calls                     153763                       # number of times a function call or return occured
system.cpu3.num_conditional_control_insts       401056                       # number of instructions that are conditional controls
system.cpu3.num_int_insts                     5557109                       # number of integer instructions
system.cpu3.num_fp_insts                         7516                       # number of float instructions
system.cpu3.num_int_register_reads           11334212                       # number of times the integer registers were read
system.cpu3.num_int_register_writes           4582803                       # number of times the integer registers were written
system.cpu3.num_fp_register_reads               12420                       # number of times the floating registers were read
system.cpu3.num_fp_register_writes               6032                       # number of times the floating registers were written
system.cpu3.num_cc_register_reads             3156133                       # number of times the CC registers were read
system.cpu3.num_cc_register_writes            1681001                       # number of times the CC registers were written
system.cpu3.num_mem_refs                      1369040                       # number of memory refs
system.cpu3.num_load_insts                     845511                       # Number of load instructions
system.cpu3.num_store_insts                    523529                       # Number of store instructions
system.cpu3.num_idle_cycles              6287379632.101795                       # Number of idle cycles
system.cpu3.num_busy_cycles              11537278.898205                       # Number of busy cycles
system.cpu3.not_idle_fraction                0.001832                       # Percentage of non-idle cycles
system.cpu3.idle_fraction                    0.998168                       # Percentage of idle cycles
system.cpu3.Branches                           607478                       # Number of branches fetched
system.cpu3.op_class::No_OpClass                99801      1.76%      1.76% # Class of executed instruction
system.cpu3.op_class::IntAlu                  4164985     73.28%     75.04% # Class of executed instruction
system.cpu3.op_class::IntMult                   10249      0.18%     75.22% # Class of executed instruction
system.cpu3.op_class::IntDiv                    33555      0.59%     75.81% # Class of executed instruction
system.cpu3.op_class::FloatAdd                   5760      0.10%     75.91% # Class of executed instruction
system.cpu3.op_class::FloatCmp                      0      0.00%     75.91% # Class of executed instruction
system.cpu3.op_class::FloatCvt                      0      0.00%     75.91% # Class of executed instruction
system.cpu3.op_class::FloatMult                     0      0.00%     75.91% # Class of executed instruction
system.cpu3.op_class::FloatDiv                      0      0.00%     75.91% # Class of executed instruction
system.cpu3.op_class::FloatSqrt                     0      0.00%     75.91% # Class of executed instruction
system.cpu3.op_class::SimdAdd                       0      0.00%     75.91% # Class of executed instruction
system.cpu3.op_class::SimdAddAcc                    0      0.00%     75.91% # Class of executed instruction
system.cpu3.op_class::SimdAlu                       0      0.00%     75.91% # Class of executed instruction
system.cpu3.op_class::SimdCmp                       0      0.00%     75.91% # Class of executed instruction
system.cpu3.op_class::SimdCvt                       0      0.00%     75.91% # Class of executed instruction
system.cpu3.op_class::SimdMisc                      0      0.00%     75.91% # Class of executed instruction
system.cpu3.op_class::SimdMult                      0      0.00%     75.91% # Class of executed instruction
system.cpu3.op_class::SimdMultAcc                   0      0.00%     75.91% # Class of executed instruction
system.cpu3.op_class::SimdShift                     0      0.00%     75.91% # Class of executed instruction
system.cpu3.op_class::SimdShiftAcc                  0      0.00%     75.91% # Class of executed instruction
system.cpu3.op_class::SimdSqrt                      0      0.00%     75.91% # Class of executed instruction
system.cpu3.op_class::SimdFloatAdd                  0      0.00%     75.91% # Class of executed instruction
system.cpu3.op_class::SimdFloatAlu                  0      0.00%     75.91% # Class of executed instruction
system.cpu3.op_class::SimdFloatCmp                  0      0.00%     75.91% # Class of executed instruction
system.cpu3.op_class::SimdFloatCvt                  0      0.00%     75.91% # Class of executed instruction
system.cpu3.op_class::SimdFloatDiv                  0      0.00%     75.91% # Class of executed instruction
system.cpu3.op_class::SimdFloatMisc                 0      0.00%     75.91% # Class of executed instruction
system.cpu3.op_class::SimdFloatMult                 0      0.00%     75.91% # Class of executed instruction
system.cpu3.op_class::SimdFloatMultAcc              0      0.00%     75.91% # Class of executed instruction
system.cpu3.op_class::SimdFloatSqrt                 0      0.00%     75.91% # Class of executed instruction
system.cpu3.op_class::MemRead                  845511     14.88%     90.79% # Class of executed instruction
system.cpu3.op_class::MemWrite                 523529      9.21%    100.00% # Class of executed instruction
system.cpu3.op_class::IprAccess                     0      0.00%    100.00% # Class of executed instruction
system.cpu3.op_class::InstPrefetch                  0      0.00%    100.00% # Class of executed instruction
system.cpu3.op_class::total                   5683390                       # Class of executed instruction
system.iobus.trans_dist::ReadReq                 1137                       # Transaction distribution
system.iobus.trans_dist::ReadResp                1137                       # Transaction distribution
system.iobus.trans_dist::WriteReq                3710                       # Transaction distribution
system.iobus.trans_dist::WriteResp               3710                       # Transaction distribution
system.iobus.trans_dist::MessageReq                53                       # Transaction distribution
system.iobus.trans_dist::MessageResp               53                       # Transaction distribution
system.iobus.pkt_count_system.pc.south_bridge.io_apic.int_master::system.ruby.l1_cntrl0.sequencer.pio-slave-port           14                       # Packet count per connected master and slave (bytes)
system.iobus.pkt_count_system.pc.south_bridge.io_apic.int_master::system.ruby.l1_cntrl1.sequencer.pio-slave-port           14                       # Packet count per connected master and slave (bytes)
system.iobus.pkt_count_system.pc.south_bridge.io_apic.int_master::system.ruby.l1_cntrl2.sequencer.pio-slave-port           14                       # Packet count per connected master and slave (bytes)
system.iobus.pkt_count_system.pc.south_bridge.io_apic.int_master::system.ruby.l1_cntrl3.sequencer.pio-slave-port           14                       # Packet count per connected master and slave (bytes)
system.iobus.pkt_count_system.pc.south_bridge.io_apic.int_master::total           56                       # Packet count per connected master and slave (bytes)
system.iobus.pkt_count_system.ruby.l1_cntrl0.sequencer.mem-master-port::system.pc.south_bridge.ide.pio           92                       # Packet count per connected master and slave (bytes)
system.iobus.pkt_count_system.ruby.l1_cntrl0.sequencer.mem-master-port::system.pc.south_bridge.io_apic.pio           36                       # Packet count per connected master and slave (bytes)
system.iobus.pkt_count_system.ruby.l1_cntrl0.sequencer.mem-master-port::system.pc.com_1.pio          202                       # Packet count per connected master and slave (bytes)
system.iobus.pkt_count_system.ruby.l1_cntrl0.sequencer.mem-master-port::system.ruby.l1_cntrl0.sequencer.pio-slave-port         1632                       # Packet count per connected master and slave (bytes)
system.iobus.pkt_count_system.ruby.l1_cntrl0.sequencer.mem-master-port::system.ruby.l1_cntrl1.sequencer.pio-slave-port            6                       # Packet count per connected master and slave (bytes)
system.iobus.pkt_count_system.ruby.l1_cntrl0.sequencer.mem-master-port::system.ruby.l1_cntrl2.sequencer.pio-slave-port            4                       # Packet count per connected master and slave (bytes)
system.iobus.pkt_count_system.ruby.l1_cntrl0.sequencer.mem-master-port::system.ruby.l1_cntrl3.sequencer.pio-slave-port            4                       # Packet count per connected master and slave (bytes)
system.iobus.pkt_count_system.ruby.l1_cntrl0.sequencer.mem-master-port::total         1976                       # Packet count per connected master and slave (bytes)
system.iobus.pkt_count_system.ruby.l1_cntrl1.sequencer.mem-master-port::system.pc.south_bridge.ide.pio           46                       # Packet count per connected master and slave (bytes)
system.iobus.pkt_count_system.ruby.l1_cntrl1.sequencer.mem-master-port::system.pc.south_bridge.io_apic.pio           42                       # Packet count per connected master and slave (bytes)
system.iobus.pkt_count_system.ruby.l1_cntrl1.sequencer.mem-master-port::system.pc.com_1.pio          950                       # Packet count per connected master and slave (bytes)
system.iobus.pkt_count_system.ruby.l1_cntrl1.sequencer.mem-master-port::system.ruby.l1_cntrl0.sequencer.pio-slave-port            6                       # Packet count per connected master and slave (bytes)
system.iobus.pkt_count_system.ruby.l1_cntrl1.sequencer.mem-master-port::system.ruby.l1_cntrl1.sequencer.pio-slave-port         1668                       # Packet count per connected master and slave (bytes)
system.iobus.pkt_count_system.ruby.l1_cntrl1.sequencer.mem-master-port::system.ruby.l1_cntrl2.sequencer.pio-slave-port           12                       # Packet count per connected master and slave (bytes)
system.iobus.pkt_count_system.ruby.l1_cntrl1.sequencer.mem-master-port::system.ruby.l1_cntrl3.sequencer.pio-slave-port            4                       # Packet count per connected master and slave (bytes)
system.iobus.pkt_count_system.ruby.l1_cntrl1.sequencer.mem-master-port::total         2728                       # Packet count per connected master and slave (bytes)
system.iobus.pkt_count_system.ruby.l1_cntrl2.sequencer.mem-master-port::system.pc.south_bridge.io_apic.pio           48                       # Packet count per connected master and slave (bytes)
system.iobus.pkt_count_system.ruby.l1_cntrl2.sequencer.mem-master-port::system.pc.com_1.pio         1220                       # Packet count per connected master and slave (bytes)
system.iobus.pkt_count_system.ruby.l1_cntrl2.sequencer.mem-master-port::system.ruby.l1_cntrl0.sequencer.pio-slave-port            2                       # Packet count per connected master and slave (bytes)
system.iobus.pkt_count_system.ruby.l1_cntrl2.sequencer.mem-master-port::system.ruby.l1_cntrl1.sequencer.pio-slave-port            6                       # Packet count per connected master and slave (bytes)
system.iobus.pkt_count_system.ruby.l1_cntrl2.sequencer.mem-master-port::system.ruby.l1_cntrl2.sequencer.pio-slave-port         1630                       # Packet count per connected master and slave (bytes)
system.iobus.pkt_count_system.ruby.l1_cntrl2.sequencer.mem-master-port::total         2906                       # Packet count per connected master and slave (bytes)
system.iobus.pkt_count_system.ruby.l1_cntrl3.sequencer.mem-master-port::system.pc.south_bridge.io_apic.pio           52                       # Packet count per connected master and slave (bytes)
system.iobus.pkt_count_system.ruby.l1_cntrl3.sequencer.mem-master-port::system.pc.com_1.pio          460                       # Packet count per connected master and slave (bytes)
system.iobus.pkt_count_system.ruby.l1_cntrl3.sequencer.mem-master-port::system.ruby.l1_cntrl0.sequencer.pio-slave-port            4                       # Packet count per connected master and slave (bytes)
system.iobus.pkt_count_system.ruby.l1_cntrl3.sequencer.mem-master-port::system.ruby.l1_cntrl1.sequencer.pio-slave-port            2                       # Packet count per connected master and slave (bytes)
system.iobus.pkt_count_system.ruby.l1_cntrl3.sequencer.mem-master-port::system.ruby.l1_cntrl3.sequencer.pio-slave-port         1616                       # Packet count per connected master and slave (bytes)
system.iobus.pkt_count_system.ruby.l1_cntrl3.sequencer.mem-master-port::total         2134                       # Packet count per connected master and slave (bytes)
system.iobus.pkt_count::total                    9800                       # Packet count per connected master and slave (bytes)
system.iobus.pkt_size_system.pc.south_bridge.io_apic.int_master::system.ruby.l1_cntrl0.sequencer.pio-slave-port           28                       # Cumulative packet size per connected master and slave (bytes)
system.iobus.pkt_size_system.pc.south_bridge.io_apic.int_master::system.ruby.l1_cntrl1.sequencer.pio-slave-port           28                       # Cumulative packet size per connected master and slave (bytes)
system.iobus.pkt_size_system.pc.south_bridge.io_apic.int_master::system.ruby.l1_cntrl2.sequencer.pio-slave-port           28                       # Cumulative packet size per connected master and slave (bytes)
system.iobus.pkt_size_system.pc.south_bridge.io_apic.int_master::system.ruby.l1_cntrl3.sequencer.pio-slave-port           28                       # Cumulative packet size per connected master and slave (bytes)
system.iobus.pkt_size_system.pc.south_bridge.io_apic.int_master::total          112                       # Cumulative packet size per connected master and slave (bytes)
system.iobus.pkt_size_system.ruby.l1_cntrl0.sequencer.mem-master-port::system.pc.south_bridge.ide.pio           52                       # Cumulative packet size per connected master and slave (bytes)
system.iobus.pkt_size_system.ruby.l1_cntrl0.sequencer.mem-master-port::system.pc.south_bridge.io_apic.pio           72                       # Cumulative packet size per connected master and slave (bytes)
system.iobus.pkt_size_system.ruby.l1_cntrl0.sequencer.mem-master-port::system.pc.com_1.pio          101                       # Cumulative packet size per connected master and slave (bytes)
system.iobus.pkt_size_system.ruby.l1_cntrl0.sequencer.mem-master-port::system.ruby.l1_cntrl0.sequencer.pio-slave-port         3264                       # Cumulative packet size per connected master and slave (bytes)
system.iobus.pkt_size_system.ruby.l1_cntrl0.sequencer.mem-master-port::system.ruby.l1_cntrl1.sequencer.pio-slave-port           12                       # Cumulative packet size per connected master and slave (bytes)
system.iobus.pkt_size_system.ruby.l1_cntrl0.sequencer.mem-master-port::system.ruby.l1_cntrl2.sequencer.pio-slave-port            8                       # Cumulative packet size per connected master and slave (bytes)
system.iobus.pkt_size_system.ruby.l1_cntrl0.sequencer.mem-master-port::system.ruby.l1_cntrl3.sequencer.pio-slave-port            8                       # Cumulative packet size per connected master and slave (bytes)
system.iobus.pkt_size_system.ruby.l1_cntrl0.sequencer.mem-master-port::total         3517                       # Cumulative packet size per connected master and slave (bytes)
system.iobus.pkt_size_system.ruby.l1_cntrl1.sequencer.mem-master-port::system.pc.south_bridge.ide.pio           26                       # Cumulative packet size per connected master and slave (bytes)
system.iobus.pkt_size_system.ruby.l1_cntrl1.sequencer.mem-master-port::system.pc.south_bridge.io_apic.pio           84                       # Cumulative packet size per connected master and slave (bytes)
system.iobus.pkt_size_system.ruby.l1_cntrl1.sequencer.mem-master-port::system.pc.com_1.pio          475                       # Cumulative packet size per connected master and slave (bytes)
system.iobus.pkt_size_system.ruby.l1_cntrl1.sequencer.mem-master-port::system.ruby.l1_cntrl0.sequencer.pio-slave-port           12                       # Cumulative packet size per connected master and slave (bytes)
system.iobus.pkt_size_system.ruby.l1_cntrl1.sequencer.mem-master-port::system.ruby.l1_cntrl1.sequencer.pio-slave-port         3336                       # Cumulative packet size per connected master and slave (bytes)
system.iobus.pkt_size_system.ruby.l1_cntrl1.sequencer.mem-master-port::system.ruby.l1_cntrl2.sequencer.pio-slave-port           24                       # Cumulative packet size per connected master and slave (bytes)
system.iobus.pkt_size_system.ruby.l1_cntrl1.sequencer.mem-master-port::system.ruby.l1_cntrl3.sequencer.pio-slave-port            8                       # Cumulative packet size per connected master and slave (bytes)
system.iobus.pkt_size_system.ruby.l1_cntrl1.sequencer.mem-master-port::total         3965                       # Cumulative packet size per connected master and slave (bytes)
system.iobus.pkt_size_system.ruby.l1_cntrl2.sequencer.mem-master-port::system.pc.south_bridge.io_apic.pio           96                       # Cumulative packet size per connected master and slave (bytes)
system.iobus.pkt_size_system.ruby.l1_cntrl2.sequencer.mem-master-port::system.pc.com_1.pio          610                       # Cumulative packet size per connected master and slave (bytes)
system.iobus.pkt_size_system.ruby.l1_cntrl2.sequencer.mem-master-port::system.ruby.l1_cntrl0.sequencer.pio-slave-port            4                       # Cumulative packet size per connected master and slave (bytes)
system.iobus.pkt_size_system.ruby.l1_cntrl2.sequencer.mem-master-port::system.ruby.l1_cntrl1.sequencer.pio-slave-port           12                       # Cumulative packet size per connected master and slave (bytes)
system.iobus.pkt_size_system.ruby.l1_cntrl2.sequencer.mem-master-port::system.ruby.l1_cntrl2.sequencer.pio-slave-port         3260                       # Cumulative packet size per connected master and slave (bytes)
system.iobus.pkt_size_system.ruby.l1_cntrl2.sequencer.mem-master-port::total         3982                       # Cumulative packet size per connected master and slave (bytes)
system.iobus.pkt_size_system.ruby.l1_cntrl3.sequencer.mem-master-port::system.pc.south_bridge.io_apic.pio          104                       # Cumulative packet size per connected master and slave (bytes)
system.iobus.pkt_size_system.ruby.l1_cntrl3.sequencer.mem-master-port::system.pc.com_1.pio          230                       # Cumulative packet size per connected master and slave (bytes)
system.iobus.pkt_size_system.ruby.l1_cntrl3.sequencer.mem-master-port::system.ruby.l1_cntrl0.sequencer.pio-slave-port            8                       # Cumulative packet size per connected master and slave (bytes)
system.iobus.pkt_size_system.ruby.l1_cntrl3.sequencer.mem-master-port::system.ruby.l1_cntrl1.sequencer.pio-slave-port            4                       # Cumulative packet size per connected master and slave (bytes)
system.iobus.pkt_size_system.ruby.l1_cntrl3.sequencer.mem-master-port::system.ruby.l1_cntrl3.sequencer.pio-slave-port         3232                       # Cumulative packet size per connected master and slave (bytes)
system.iobus.pkt_size_system.ruby.l1_cntrl3.sequencer.mem-master-port::total         3578                       # Cumulative packet size per connected master and slave (bytes)
system.iobus.pkt_size::total                    15154                       # Cumulative packet size per connected master and slave (bytes)
system.iobus.reqLayer2.occupancy               121500                       # Layer occupancy (ticks)
system.iobus.reqLayer2.utilization                0.0                       # Layer utilization (%)
system.iobus.reqLayer8.occupancy               155986                       # Layer occupancy (ticks)
system.iobus.reqLayer8.utilization                0.0                       # Layer utilization (%)
system.iobus.reqLayer12.occupancy             1810000                       # Layer occupancy (ticks)
system.iobus.reqLayer12.utilization               0.0                       # Layer utilization (%)
system.iobus.reqLayer17.occupancy             2058990                       # Layer occupancy (ticks)
system.iobus.reqLayer17.utilization               0.0                       # Layer utilization (%)
system.iobus.reqLayer18.occupancy             2281706                       # Layer occupancy (ticks)
system.iobus.reqLayer18.utilization               0.0                       # Layer utilization (%)
system.iobus.reqLayer19.occupancy             2061994                       # Layer occupancy (ticks)
system.iobus.reqLayer19.utilization               0.0                       # Layer utilization (%)
system.iobus.reqLayer20.occupancy             2034997                       # Layer occupancy (ticks)
system.iobus.reqLayer20.utilization               0.0                       # Layer utilization (%)
system.iobus.respLayer0.occupancy               36997                       # Layer occupancy (ticks)
system.iobus.respLayer0.utilization               0.0                       # Layer utilization (%)
system.iobus.respLayer2.occupancy             1495000                       # Layer occupancy (ticks)
system.iobus.respLayer2.utilization               0.0                       # Layer utilization (%)
system.iobus.respLayer4.occupancy             2163000                       # Layer occupancy (ticks)
system.iobus.respLayer4.utilization               0.0                       # Layer utilization (%)
system.iobus.respLayer6.occupancy             2329500                       # Layer occupancy (ticks)
system.iobus.respLayer6.utilization               0.0                       # Layer utilization (%)
system.iobus.respLayer8.occupancy             1658000                       # Layer occupancy (ticks)
system.iobus.respLayer8.utilization               0.0                       # Layer utilization (%)
system.pc.south_bridge.ide.disks.dma_read_full_pages            0                       # Number of full page size DMA reads (not PRD).
system.pc.south_bridge.ide.disks.dma_read_bytes            0                       # Number of bytes transfered via DMA reads (not PRD).
system.pc.south_bridge.ide.disks.dma_read_txs            0                       # Number of DMA read transactions (not PRD).
system.pc.south_bridge.ide.disks.dma_write_full_pages           26                       # Number of full page size DMA writes.
system.pc.south_bridge.ide.disks.dma_write_bytes       106496                       # Number of bytes transfered via DMA writes.
system.pc.south_bridge.ide.disks.dma_write_txs           26                       # Number of DMA write transactions.
system.ruby.clk_domain.clock                      500                       # Clock period in ticks
system.ruby.outstanding_req_hist_seqr::bucket_size            1                      
system.ruby.outstanding_req_hist_seqr::max_bucket            9                      
system.ruby.outstanding_req_hist_seqr::samples   3065253744                      
system.ruby.outstanding_req_hist_seqr::mean     1.000000                      
system.ruby.outstanding_req_hist_seqr::gmean     1.000000                      
system.ruby.outstanding_req_hist_seqr::stdev     0.000460                      
system.ruby.outstanding_req_hist_seqr    |           0      0.00%      0.00% |  3065253096    100.00%    100.00% |         648      0.00%    100.00% |           0      0.00%    100.00% |           0      0.00%    100.00% |           0      0.00%    100.00% |           0      0.00%    100.00% |           0      0.00%    100.00% |           0      0.00%    100.00% |           0      0.00%    100.00%
system.ruby.outstanding_req_hist_seqr::total   3065253744                      
system.ruby.latency_hist_seqr::bucket_size          256                      
system.ruby.latency_hist_seqr::max_bucket         2559                      
system.ruby.latency_hist_seqr::samples     3065253744                      
system.ruby.latency_hist_seqr::mean          1.066007                      
system.ruby.latency_hist_seqr::gmean         1.004315                      
system.ruby.latency_hist_seqr::stdev         2.941670                      
system.ruby.latency_hist_seqr            |  3065221936    100.00%    100.00% |       17945      0.00%    100.00% |       13601      0.00%    100.00% |         254      0.00%    100.00% |           7      0.00%    100.00% |           1      0.00%    100.00% |           0      0.00%    100.00% |           0      0.00%    100.00% |           0      0.00%    100.00% |           0      0.00%    100.00%
system.ruby.latency_hist_seqr::total       3065253744                      
system.ruby.hit_latency_hist_seqr::bucket_size            2                      
[...]
system.ruby.L1Cache_Controller.O.Other_GETS::total        23304                      
system.ruby.L1Cache_Controller.O.Merged_GETS |           0      0.00%      0.00% |           0      0.00%      0.00% |           0      0.00%      0.00% |           1    100.00%    100.00%
system.ruby.L1Cache_Controller.O.Merged_GETS::total            1                      
system.ruby.L1Cache_Controller.M.Load    |      140580      0.12%      0.12% |   120668960     99.70%     99.82% |      116452      0.10%     99.92% |      101584      0.08%    100.00%
system.ruby.L1Cache_Controller.M.Load::total    121027576                      
system.ruby.L1Cache_Controller.M.Ifetch  |      603015      0.00%      0.00% |18446744072115593216    100.00%    100.00% |       52984      0.00%    100.00% |       31698      0.00%    100.00%
system.ruby.L1Cache_Controller.M.Ifetch::total 18446744072116279296                      
system.ruby.L1Cache_Controller.M.Store   |        5069      1.35%      1.35% |      365825     97.72%     99.07% |        2636      0.70%     99.78% |         833      0.22%    100.00%
system.ruby.L1Cache_Controller.M.Store::total       374363                      
system.ruby.L1Cache_Controller.M.L2_Replacement |         582      0.09%      0.09% |      659791     99.89%     99.98% |         100      0.02%    100.00% |          31      0.00%    100.00%
system.ruby.L1Cache_Controller.M.L2_Replacement::total       660504                      
system.ruby.L1Cache_Controller.M.L1_to_L2 |       13975      0.60%      0.60% |     2287638     98.77%     99.37% |        9863      0.43%     99.80% |        4645      0.20%    100.00%
system.ruby.L1Cache_Controller.M.L1_to_L2::total      2316121                      
system.ruby.L1Cache_Controller.M.Trigger_L2_to_L1D |        2570      0.16%      0.16% |     1556782     99.61%     99.78% |        2869      0.18%     99.96% |         579      0.04%    100.00%
system.ruby.L1Cache_Controller.M.Trigger_L2_to_L1D::total      1562800                      
system.ruby.L1Cache_Controller.M.Trigger_L2_to_L1I |        6543      8.81%      8.81% |       67258     90.60%     99.41% |         316      0.43%     99.83% |         123      0.17%    100.00%
system.ruby.L1Cache_Controller.M.Trigger_L2_to_L1I::total        74240                      
system.ruby.L1Cache_Controller.M.Other_GETX |         839     42.50%     42.50% |         534     27.05%     69.55% |         373     18.90%     88.45% |         228     11.55%    100.00%
system.ruby.L1Cache_Controller.M.Other_GETX::total         1974                      
system.ruby.L1Cache_Controller.M.Other_GETS |        3766     16.16%     16.16% |        1894      8.13%     24.29% |        8606     36.94%     61.23% |        9034     38.77%    100.00%
system.ruby.L1Cache_Controller.M.Other_GETS::total        23300                      
system.ruby.L1Cache_Controller.M.Merged_GETS |           3      8.57%      8.57% |           1      2.86%     11.43% |          10     28.57%     40.00% |          21     60.00%    100.00%
system.ruby.L1Cache_Controller.M.Merged_GETS::total           35                      
system.ruby.L1Cache_Controller.MM.Load   |      918223      0.56%      0.56% |   162280586     98.75%     99.31% |      632804      0.39%     99.69% |      508154      0.31%    100.00%
system.ruby.L1Cache_Controller.MM.Load::total    164339767                      
system.ruby.L1Cache_Controller.MM.Store  |     1013549      2.18%      2.18% |    44321112     95.11%     97.29% |      694240      1.49%     98.78% |      570722      1.22%    100.00%
system.ruby.L1Cache_Controller.MM.Store::total     46599623                      
system.ruby.L1Cache_Controller.MM.L2_Replacement |        1908      0.26%      0.26% |      728168     99.70%     99.96% |         219      0.03%     99.99% |          69      0.01%    100.00%
system.ruby.L1Cache_Controller.MM.L2_Replacement::total       730364                      
system.ruby.L1Cache_Controller.MM.L1_to_L2 |       22888      1.60%      1.60% |     1386236     96.74%     98.34% |       15989      1.12%     99.46% |        7769      0.54%    100.00%
system.ruby.L1Cache_Controller.MM.L1_to_L2::total      1432882                      
system.ruby.L1Cache_Controller.MM.Trigger_L2_to_L1D |        9043      1.36%      1.36% |      642079     96.92%     98.28% |        7363      1.11%     99.39% |        4022      0.61%    100.00%
system.ruby.L1Cache_Controller.MM.Trigger_L2_to_L1D::total       662507                      
system.ruby.L1Cache_Controller.MM.Other_GETX |         764     12.10%     12.10% |        2539     40.22%     52.32% |         621      9.84%     62.16% |        2389     37.84%    100.00%
system.ruby.L1Cache_Controller.MM.Other_GETX::total         6313                      
system.ruby.L1Cache_Controller.MM.Other_GETS |        9019     36.46%     36.46% |        6700     27.09%     63.55% |        4627     18.71%     82.26% |        4389     17.74%    100.00%
system.ruby.L1Cache_Controller.MM.Other_GETS::total        24735                      
system.ruby.L1Cache_Controller.MM.Merged_GETS |           4      6.35%      6.35% |          16     25.40%     31.75% |          19     30.16%     61.90% |          24     38.10%    100.00%
system.ruby.L1Cache_Controller.MM.Merged_GETS::total           63                      
system.ruby.L1Cache_Controller.SR.Load   |        6501     12.22%     12.22% |       39164     73.59%     85.80% |        3822      7.18%     92.99% |        3733      7.01%    100.00%
system.ruby.L1Cache_Controller.SR.Load::total        53220                      
system.ruby.L1Cache_Controller.SR.Ifetch |       36875     29.36%     29.36% |       33127     26.38%     55.74% |       33558     26.72%     82.46% |       22029     17.54%    100.00%
system.ruby.L1Cache_Controller.SR.Ifetch::total       125589                      
system.ruby.L1Cache_Controller.SR.Store  |         124     32.63%     32.63% |         209     55.00%     87.63% |          38     10.00%     97.63% |           9      2.37%    100.00%
system.ruby.L1Cache_Controller.SR.Store::total          380                      
system.ruby.L1Cache_Controller.OR.Load   |        1882     34.26%     34.26% |         772     14.05%     48.31% |        1787     32.53%     80.83% |        1053     19.17%    100.00%
system.ruby.L1Cache_Controller.OR.Load::total         5494                      
system.ruby.L1Cache_Controller.OR.Ifetch |       16555     61.08%     61.08% |        3788     13.98%     75.06% |         769      2.84%     77.90% |        5990     22.10%    100.00%
system.ruby.L1Cache_Controller.OR.Ifetch::total        27102                      
system.ruby.L1Cache_Controller.OR.Store  |           5      4.67%      4.67% |          15     14.02%     18.69% |          67     62.62%     81.31% |          20     18.69%    100.00%
system.ruby.L1Cache_Controller.OR.Store::total          107                      
system.ruby.L1Cache_Controller.MR.Load   |        1927      0.12%      0.12% |     1545911     99.69%     99.81% |        2421      0.16%     99.97% |         517      0.03%    100.00%
system.ruby.L1Cache_Controller.MR.Load::total      1550776                      
system.ruby.L1Cache_Controller.MR.Ifetch |        6543      8.81%      8.81% |       67258     90.60%     99.41% |         316      0.43%     99.83% |         123      0.17%    100.00%
system.ruby.L1Cache_Controller.MR.Ifetch::total        74240                      
system.ruby.L1Cache_Controller.MR.Store  |         643      5.35%      5.35% |       10871     90.41%     95.76% |         448      3.73%     99.48% |          62      0.52%    100.00%
system.ruby.L1Cache_Controller.MR.Store::total        12024                      
system.ruby.L1Cache_Controller.MMR.Load  |        5186      0.99%      0.99% |      515642     98.28%     99.27% |        2926      0.56%     99.82% |         928      0.18%    100.00%
system.ruby.L1Cache_Controller.MMR.Load::total       524682                      
system.ruby.L1Cache_Controller.MMR.Store |        3857      2.80%      2.80% |      126437     91.74%     94.54% |        4437      3.22%     97.76% |        3094      2.24%    100.00%
system.ruby.L1Cache_Controller.MMR.Store::total       137825                      
system.ruby.L1Cache_Controller.IM.Ack    |       15829      1.39%      1.39% |     1101218     97.01%     98.40% |       10935      0.96%     99.37% |        7193      0.63%    100.00%
system.ruby.L1Cache_Controller.IM.Ack::total      1135175                      
system.ruby.L1Cache_Controller.IM.Data   |        3517     47.44%     47.44% |         875     11.80%     59.25% |        1525     20.57%     79.82% |        1496     20.18%    100.00%
system.ruby.L1Cache_Controller.IM.Data::total         7413                      
system.ruby.L1Cache_Controller.IM.Exclusive_Data |        6223      1.63%      1.63% |      367549     96.49%     98.13% |        5248      1.38%     99.50% |        1889      0.50%    100.00%
system.ruby.L1Cache_Controller.IM.Exclusive_Data::total       380909                      
system.ruby.L1Cache_Controller.SM.Other_GETX |           0      0.00%      0.00% |           0      0.00%      0.00% |           1    100.00%    100.00% |           0      0.00%    100.00%
system.ruby.L1Cache_Controller.SM.Other_GETX::total            1                      
system.ruby.L1Cache_Controller.SM.Ack    |        7358     56.00%     56.00% |        2055     15.64%     71.64% |        1381     10.51%     82.15% |        2346     17.85%    100.00%
system.ruby.L1Cache_Controller.SM.Ack::total        13140                      
system.ruby.L1Cache_Controller.SM.Data   |        5022     46.69%     46.69% |        2231     20.74%     67.44% |        1858     17.28%     84.71% |        1644     15.29%    100.00%
system.ruby.L1Cache_Controller.SM.Data::total        10755                      
system.ruby.L1Cache_Controller.OM.Ack    |         135     13.04%     13.04% |         432     41.74%     54.78% |         312     30.14%     84.93% |         156     15.07%    100.00%
system.ruby.L1Cache_Controller.OM.Ack::total         1035                      
system.ruby.L1Cache_Controller.OM.All_acks_no_sharers |          45     13.04%     13.04% |         144     41.74%     54.78% |         104     30.14%     84.93% |          52     15.07%    100.00%
system.ruby.L1Cache_Controller.OM.All_acks_no_sharers::total          345                      
system.ruby.L1Cache_Controller.ISM.Ack   |        4445     31.11%     31.11% |        3398     23.79%     54.90% |        4765     33.35%     88.25% |        1678     11.75%    100.00%
system.ruby.L1Cache_Controller.ISM.Ack::total        14286                      
system.ruby.L1Cache_Controller.ISM.All_acks_no_sharers |        8539     47.00%     47.00% |        3106     17.10%     64.10% |        3383     18.62%     82.72% |        3140     17.28%    100.00%
system.ruby.L1Cache_Controller.ISM.All_acks_no_sharers::total        18168                      
system.ruby.L1Cache_Controller.M_W.Load  |          78     31.97%     31.97% |         106     43.44%     75.41% |          38     15.57%     90.98% |          22      9.02%    100.00%
system.ruby.L1Cache_Controller.M_W.Load::total          244                      
system.ruby.L1Cache_Controller.M_W.Store |           3      2.88%      2.88% |          89     85.58%     88.46% |          10      9.62%     98.08% |           2      1.92%    100.00%
system.ruby.L1Cache_Controller.M_W.Store::total          104                      
system.ruby.L1Cache_Controller.M_W.Ack   |        5821     20.78%     20.78% |        2127      7.59%     28.38% |        7379     26.34%     54.72% |       12683     45.28%    100.00%
system.ruby.L1Cache_Controller.M_W.Ack::total        28010                      
system.ruby.L1Cache_Controller.M_W.All_acks_no_sharers |       13447      1.25%      1.25% |     1041232     96.55%     97.80% |       13413      1.24%     99.04% |       10342      0.96%    100.00%
system.ruby.L1Cache_Controller.M_W.All_acks_no_sharers::total      1078434                      
system.ruby.L1Cache_Controller.MM_W.Store |        1014     38.56%     38.56% |         459     17.45%     56.01% |        1007     38.29%     94.30% |         150      5.70%    100.00%
system.ruby.L1Cache_Controller.MM_W.Store::total         2630                      
system.ruby.L1Cache_Controller.MM_W.Ack  |        3883     46.59%     46.59% |        1204     14.45%     61.03% |        2867     34.40%     95.43% |         381      4.57%    100.00%
system.ruby.L1Cache_Controller.MM_W.Ack::total         8335                      
system.ruby.L1Cache_Controller.MM_W.All_acks_no_sharers |        6226      1.63%      1.63% |      367638     96.49%     98.12% |        5258      1.38%     99.50% |        1891      0.50%    100.00%
system.ruby.L1Cache_Controller.MM_W.All_acks_no_sharers::total       381013                      
system.ruby.L1Cache_Controller.IS.Other_GETS |           0      0.00%      0.00% |           0      0.00%      0.00% |          14    100.00%    100.00% |           0      0.00%    100.00%
system.ruby.L1Cache_Controller.IS.Other_GETS::total           14                      
system.ruby.L1Cache_Controller.IS.Ack    |       44647      1.38%      1.38% |     3132159     96.93%     98.31% |       36986      1.14%     99.46% |       17489      0.54%    100.00%
system.ruby.L1Cache_Controller.IS.Ack::total      3231281                      
system.ruby.L1Cache_Controller.IS.Shared_Ack |       11985     30.52%     30.52% |       13963     35.56%     66.08% |       10231     26.06%     92.14% |        3087      7.86%    100.00%
system.ruby.L1Cache_Controller.IS.Shared_Ack::total        39266                      
system.ruby.L1Cache_Controller.IS.Data   |        4005     35.38%     35.38% |        3903     34.48%     69.85% |        3320     29.33%     99.18% |          93      0.82%    100.00%
system.ruby.L1Cache_Controller.IS.Data::total        11321                      
system.ruby.L1Cache_Controller.IS.Shared_Data |       13617     29.16%     29.16% |       12757     27.32%     56.47% |       11116     23.80%     80.27% |        9213     19.73%    100.00%
system.ruby.L1Cache_Controller.IS.Shared_Data::total        46703                      
system.ruby.L1Cache_Controller.IS.Exclusive_Data |       13450      1.25%      1.25% |     1041321     96.55%     97.80% |       13423      1.24%     99.04% |       10344      0.96%    100.00%
system.ruby.L1Cache_Controller.IS.Exclusive_Data::total      1078538                      
system.ruby.L1Cache_Controller.SS.Load   |         136     24.64%     24.64% |         385     69.75%     94.38% |          23      4.17%     98.55% |           8      1.45%    100.00%
system.ruby.L1Cache_Controller.SS.Load::total          552                      
system.ruby.L1Cache_Controller.SS.Ifetch |        1528     30.11%     30.11% |        2460     48.48%     78.60% |         749     14.76%     93.36% |         337      6.64%    100.00%
system.ruby.L1Cache_Controller.SS.Ifetch::total         5074                      
system.ruby.L1Cache_Controller.SS.Store  |           3     17.65%     17.65% |           2     11.76%     29.41% |           3     17.65%     47.06% |           9     52.94%    100.00%
system.ruby.L1Cache_Controller.SS.Store::total           17                      
system.ruby.L1Cache_Controller.SS.Ack    |        8575     30.74%     30.74% |        5896     21.14%     51.88% |        6836     24.51%     76.39% |        6585     23.61%    100.00%
system.ruby.L1Cache_Controller.SS.Ack::total        27892                      
system.ruby.L1Cache_Controller.SS.Shared_Ack |        2927     25.45%     25.45% |        4753     41.32%     66.77% |        2581     22.44%     89.21% |        1241     10.79%    100.00%
system.ruby.L1Cache_Controller.SS.Shared_Ack::total        11502                      
system.ruby.L1Cache_Controller.SS.All_acks |       17578     30.34%     30.34% |       16634     28.71%     59.05% |       14422     24.89%     83.94% |        9304     16.06%    100.00%
system.ruby.L1Cache_Controller.SS.All_acks::total        57938                      
system.ruby.L1Cache_Controller.SS.All_acks_no_sharers |          44     51.16%     51.16% |          26     30.23%     81.40% |          14     16.28%     97.67% |           2      2.33%    100.00%
system.ruby.L1Cache_Controller.SS.All_acks_no_sharers::total           86                      
system.ruby.L1Cache_Controller.OI.Load   |           0      0.00%      0.00% |           0      0.00%      0.00% |           0      0.00%      0.00% |           1    100.00%    100.00%
system.ruby.L1Cache_Controller.OI.Load::total            1                      
system.ruby.L1Cache_Controller.OI.Ifetch |           0      0.00%      0.00% |           1     50.00%     50.00% |           0      0.00%     50.00% |           1     50.00%    100.00%
system.ruby.L1Cache_Controller.OI.Ifetch::total            2                      
system.ruby.L1Cache_Controller.OI.Store  |           0      0.00%      0.00% |           0      0.00%      0.00% |           1    100.00%    100.00% |           0      0.00%    100.00%
system.ruby.L1Cache_Controller.OI.Store::total            1                      
system.ruby.L1Cache_Controller.OI.Writeback_Ack |         139      2.96%      2.96% |        4380     93.37%     96.33% |         103      2.20%     98.53% |          69      1.47%    100.00%
system.ruby.L1Cache_Controller.OI.Writeback_Ack::total         4691                      
system.ruby.L1Cache_Controller.MI.Load   |          11      0.19%      0.19% |        5693     99.79%     99.98% |           1      0.02%    100.00% |           0      0.00%    100.00%
system.ruby.L1Cache_Controller.MI.Load::total         5705                      
system.ruby.L1Cache_Controller.MI.Ifetch |           1     25.00%     25.00% |           3     75.00%    100.00% |           0      0.00%    100.00% |           0      0.00%    100.00%
system.ruby.L1Cache_Controller.MI.Ifetch::total            4                      
system.ruby.L1Cache_Controller.MI.Store  |           4      0.34%      0.34% |        1187     99.41%     99.75% |           1      0.08%     99.83% |           2      0.17%    100.00%
system.ruby.L1Cache_Controller.MI.Store::total         1194                      
system.ruby.L1Cache_Controller.MI.Writeback_Ack |        2490      0.18%      0.18% |     1387959     99.79%     99.97% |         319      0.02%     99.99% |         100      0.01%    100.00%
system.ruby.L1Cache_Controller.MI.Writeback_Ack::total      1390868                      
system.ruby.L1Cache_Controller.ST.Complete_L2_to_L1 |       43500     24.28%     24.28% |       72500     40.46%     64.74% |       37418     20.88%     85.62% |       25771     14.38%    100.00%
system.ruby.L1Cache_Controller.ST.Complete_L2_to_L1::total       179189                      
system.ruby.L1Cache_Controller.OT.Complete_L2_to_L1 |       18442     56.39%     56.39% |        4575     13.99%     70.38% |        2623      8.02%     78.40% |        7063     21.60%    100.00%
system.ruby.L1Cache_Controller.OT.Complete_L2_to_L1::total        32703                      
system.ruby.L1Cache_Controller.MT.Complete_L2_to_L1 |        9113      0.56%      0.56% |     1624040     99.21%     99.76% |        3185      0.19%     99.96% |         702      0.04%    100.00%
system.ruby.L1Cache_Controller.MT.Complete_L2_to_L1::total      1637040                      
system.ruby.L1Cache_Controller.MMT.Complete_L2_to_L1 |        9043      1.36%      1.36% |      642079     96.92%     98.28% |        7363      1.11%     99.39% |        4022      0.61%    100.00%
system.ruby.L1Cache_Controller.MMT.Complete_L2_to_L1::total       662507                      

---------- End Simulation Statistics   ----------
