
---------- Begin Simulation Statistics ----------
sim_seconds                                  0.802525                       # Number of seconds simulated
sim_ticks                                802525122000                       # Number of ticks simulated
final_tick                               54440573105501                       # Number of ticks from beginning of simulation (restored from checkpoints and never reset)
sim_freq                                 1000000000000                       # Frequency of simulated ticks
host_inst_rate                                  97822                       # Simulator instruction rate (inst/s)
host_op_rate                                   161986                       # Simulator op (including micro ops) rate (op/s)
host_tick_rate                              280623100                       # Simulator tick rate (ticks/s)
host_mem_usage                                2187052                       # Number of bytes of host memory used
host_seconds                                  2859.80                       # Real time elapsed on the host
sim_insts                                   279750013                       # Number of instructions simulated
sim_ops                                     463246166                       # Number of ops (including micro ops) simulated
system.voltage_domain.voltage                       1                       # Voltage in Volts
system.clk_domain.clock                          1000                       # Clock period in ticks
system.mem_ctrls.bytes_read::ruby.dir_cntrl0    241555776                       # Number of bytes read from this memory
system.mem_ctrls.bytes_read::total          241555776                       # Number of bytes read from this memory
system.mem_ctrls.bytes_written::ruby.dir_cntrl0    128281664                       # Number of bytes written to this memory
system.mem_ctrls.bytes_written::total       128281664                       # Number of bytes written to this memory
system.mem_ctrls.num_reads::ruby.dir_cntrl0      3774309                       # Number of read requests responded to by this memory
system.mem_ctrls.num_reads::total             3774309                       # Number of read requests responded to by this memory
system.mem_ctrls.num_writes::ruby.dir_cntrl0      2004401                       # Number of write requests responded to by this memory
system.mem_ctrls.num_writes::total            2004401                       # Number of write requests responded to by this memory
system.mem_ctrls.bw_read::ruby.dir_cntrl0    300994660                       # Total read bandwidth from this memory (bytes/s)
system.mem_ctrls.bw_read::total             300994660                       # Total read bandwidth from this memory (bytes/s)
system.mem_ctrls.bw_write::ruby.dir_cntrl0    159847537                       # Write bandwidth from this memory (bytes/s)
system.mem_ctrls.bw_write::total            159847537                       # Write bandwidth from this memory (bytes/s)
system.mem_ctrls.bw_total::ruby.dir_cntrl0    460842197                       # Total bandwidth to/from this memory (bytes/s)
system.mem_ctrls.bw_total::total            460842197                       # Total bandwidth to/from this memory (bytes/s)
system.mem_ctrls.readReqs                     3774309                       # Number of read requests accepted
system.mem_ctrls.writeReqs                    2004401                       # Number of write requests accepted
system.mem_ctrls.readBursts                   3774309                       # Number of DRAM read bursts, including those serviced by the write queue
system.mem_ctrls.writeBursts                  2004401                       # Number of DRAM write bursts, including those merged in the write queue
system.mem_ctrls.bytesReadDRAM              241519808                       # Total number of bytes read from DRAM
system.mem_ctrls.bytesReadWrQ                   35968                       # Total number of bytes read from write queue
system.mem_ctrls.bytesWritten               128281600                       # Total number of bytes written to DRAM
system.mem_ctrls.bytesReadSys               241555776                       # Total read bytes from the system interface side
system.mem_ctrls.bytesWrittenSys            128281664                       # Total written bytes from the system interface side
system.mem_ctrls.servicedByWrQ                    562                       # Number of DRAM read bursts serviced by the write queue
system.mem_ctrls.mergedWrBursts                     0                       # Number of DRAM write bursts merged with an existing one
system.mem_ctrls.neitherReadNorWriteReqs            0                       # Number of requests that are neither read nor write
system.mem_ctrls.perBankRdBursts::0            229662                       # Per bank write bursts
system.mem_ctrls.perBankRdBursts::1            252549                       # Per bank write bursts
system.mem_ctrls.perBankRdBursts::2            245531                       # Per bank write bursts
system.mem_ctrls.perBankRdBursts::3            239298                       # Per bank write bursts
system.mem_ctrls.perBankRdBursts::4            245261                       # Per bank write bursts
system.mem_ctrls.perBankRdBursts::5            242927                       # Per bank write bursts
system.mem_ctrls.perBankRdBursts::6            228377                       # Per bank write bursts
system.mem_ctrls.perBankRdBursts::7            233582                       # Per bank write bursts
system.mem_ctrls.perBankRdBursts::8            249693                       # Per bank write bursts
system.mem_ctrls.perBankRdBursts::9            228520                       # Per bank write bursts
system.mem_ctrls.perBankRdBursts::10           225866                       # Per bank write bursts
system.mem_ctrls.perBankRdBursts::11           229054                       # Per bank write bursts
system.mem_ctrls.perBankRdBursts::12           230161                       # Per bank write bursts
system.mem_ctrls.perBankRdBursts::13           240131                       # Per bank write bursts
system.mem_ctrls.perBankRdBursts::14           229598                       # Per bank write bursts
system.mem_ctrls.perBankRdBursts::15           223537                       # Per bank write bursts
system.mem_ctrls.perBankWrBursts::0            123788                       # Per bank write bursts
system.mem_ctrls.perBankWrBursts::1            125447                       # Per bank write bursts
system.mem_ctrls.perBankWrBursts::2            126884                       # Per bank write bursts
system.mem_ctrls.perBankWrBursts::3            125918                       # Per bank write bursts
system.mem_ctrls.perBankWrBursts::4            127115                       # Per bank write bursts
system.mem_ctrls.perBankWrBursts::5            126138                       # Per bank write bursts
system.mem_ctrls.perBankWrBursts::6            124574                       # Per bank write bursts
system.mem_ctrls.perBankWrBursts::7            124500                       # Per bank write bursts
system.mem_ctrls.perBankWrBursts::8            128212                       # Per bank write bursts
system.mem_ctrls.perBankWrBursts::9            124919                       # Per bank write bursts
system.mem_ctrls.perBankWrBursts::10           123530                       # Per bank write bursts
system.mem_ctrls.perBankWrBursts::11           125119                       # Per bank write bursts
system.mem_ctrls.perBankWrBursts::12           125881                       # Per bank write bursts
system.mem_ctrls.perBankWrBursts::13           126761                       # Per bank write bursts
system.mem_ctrls.perBankWrBursts::14           124445                       # Per bank write bursts
system.mem_ctrls.perBankWrBursts::15           121169                       # Per bank write bursts
system.mem_ctrls.numRdRetry                         0                       # Number of times read queue was full causing retry
system.mem_ctrls.numWrRetry                         0                       # Number of times write queue was full causing retry
system.mem_ctrls.totGap                  802525078500                       # Total gap between requests
system.mem_ctrls.readPktSize::0                     0                       # Read request sizes (log2)
system.mem_ctrls.readPktSize::1                     0                       # Read request sizes (log2)
system.mem_ctrls.readPktSize::2                     0                       # Read request sizes (log2)
system.mem_ctrls.readPktSize::3                     0                       # Read request sizes (log2)
system.mem_ctrls.readPktSize::4                     0                       # Read request sizes (log2)
system.mem_ctrls.readPktSize::5                     0                       # Read request sizes (log2)
system.mem_ctrls.readPktSize::6               3774309                       # Read request sizes (log2)
system.mem_ctrls.writePktSize::0                    0                       # Write request sizes (log2)
system.mem_ctrls.writePktSize::1                    0                       # Write request sizes (log2)
system.mem_ctrls.writePktSize::2                    0                       # Write request sizes (log2)
system.mem_ctrls.writePktSize::3                    0                       # Write request sizes (log2)
system.mem_ctrls.writePktSize::4                    0                       # Write request sizes (log2)
system.mem_ctrls.writePktSize::5                    0                       # Write request sizes (log2)
system.mem_ctrls.writePktSize::6              2004401                       # Write request sizes (log2)
system.mem_ctrls.rdQLenPdf::0                 3752149                       # What read queue length does an incoming req see
system.mem_ctrls.rdQLenPdf::1                   21446                       # What read queue length does an incoming req see
system.mem_ctrls.rdQLenPdf::2                     152                       # What read queue length does an incoming req see
system.mem_ctrls.rdQLenPdf::3                       0                       # What read queue length does an incoming req see
system.mem_ctrls.rdQLenPdf::4                       0                       # What read queue length does an incoming req see
system.mem_ctrls.rdQLenPdf::5                       0                       # What read queue length does an incoming req see
system.mem_ctrls.rdQLenPdf::6                       0                       # What read queue length does an incoming req see
system.mem_ctrls.rdQLenPdf::7                       0                       # What read queue length does an incoming req see
system.mem_ctrls.rdQLenPdf::8                       0                       # What read queue length does an incoming req see
system.mem_ctrls.rdQLenPdf::9                       0                       # What read queue length does an incoming req see
system.mem_ctrls.rdQLenPdf::10                      0                       # What read queue length does an incoming req see
system.mem_ctrls.rdQLenPdf::11                      0                       # What read queue length does an incoming req see
system.mem_ctrls.rdQLenPdf::12                      0                       # What read queue length does an incoming req see
system.mem_ctrls.rdQLenPdf::13                      0                       # What read queue length does an incoming req see
system.mem_ctrls.rdQLenPdf::14                      0                       # What read queue length does an incoming req see
system.mem_ctrls.rdQLenPdf::15                      0                       # What read queue length does an incoming req see
system.mem_ctrls.rdQLenPdf::16                      0                       # What read queue length does an incoming req see
system.mem_ctrls.rdQLenPdf::17                      0                       # What read queue length does an incoming req see
system.mem_ctrls.rdQLenPdf::18                      0                       # What read queue length does an incoming req see
system.mem_ctrls.rdQLenPdf::19                      0                       # What read queue length does an incoming req see
system.mem_ctrls.rdQLenPdf::20                      0                       # What read queue length does an incoming req see
system.mem_ctrls.rdQLenPdf::21                      0                       # What read queue length does an incoming req see
system.mem_ctrls.rdQLenPdf::22                      0                       # What read queue length does an incoming req see
system.mem_ctrls.rdQLenPdf::23                      0                       # What read queue length does an incoming req see
system.mem_ctrls.rdQLenPdf::24                      0                       # What read queue length does an incoming req see
system.mem_ctrls.rdQLenPdf::25                      0                       # What read queue length does an incoming req see
system.mem_ctrls.rdQLenPdf::26                      0                       # What read queue length does an incoming req see
system.mem_ctrls.rdQLenPdf::27                      0                       # What read queue length does an incoming req see
system.mem_ctrls.rdQLenPdf::28                      0                       # What read queue length does an incoming req see
system.mem_ctrls.rdQLenPdf::29                      0                       # What read queue length does an incoming req see
system.mem_ctrls.rdQLenPdf::30                      0                       # What read queue length does an incoming req see
system.mem_ctrls.rdQLenPdf::31                      0                       # What read queue length does an incoming req see
system.mem_ctrls.wrQLenPdf::0                       0                       # What write queue length does an incoming req see
system.mem_ctrls.wrQLenPdf::1                       0                       # What write queue length does an incoming req see
system.mem_ctrls.wrQLenPdf::2                       0                       # What write queue length does an incoming req see
system.mem_ctrls.wrQLenPdf::3                       0                       # What write queue length does an incoming req see
system.mem_ctrls.wrQLenPdf::4                       0                       # What write queue length does an incoming req see
system.mem_ctrls.wrQLenPdf::5                       0                       # What write queue length does an incoming req see
system.mem_ctrls.wrQLenPdf::6                       0                       # What write queue length does an incoming req see
system.mem_ctrls.wrQLenPdf::7                       0                       # What write queue length does an incoming req see
system.mem_ctrls.wrQLenPdf::8                       0                       # What write queue length does an incoming req see
system.mem_ctrls.wrQLenPdf::9                       0                       # What write queue length does an incoming req see
system.mem_ctrls.wrQLenPdf::10                      0                       # What write queue length does an incoming req see
system.mem_ctrls.wrQLenPdf::11                      0                       # What write queue length does an incoming req see
system.mem_ctrls.wrQLenPdf::12                      0                       # What write queue length does an incoming req see
system.mem_ctrls.wrQLenPdf::13                      0                       # What write queue length does an incoming req see
system.mem_ctrls.wrQLenPdf::14                      0                       # What write queue length does an incoming req see
system.mem_ctrls.wrQLenPdf::15                  63495                       # What write queue length does an incoming req see
system.mem_ctrls.wrQLenPdf::16                  68779                       # What write queue length does an incoming req see
system.mem_ctrls.wrQLenPdf::17                 105925                       # What write queue length does an incoming req see
system.mem_ctrls.wrQLenPdf::18                 118331                       # What write queue length does an incoming req see
system.mem_ctrls.wrQLenPdf::19                 119502                       # What write queue length does an incoming req see
system.mem_ctrls.wrQLenPdf::20                 119237                       # What write queue length does an incoming req see
system.mem_ctrls.wrQLenPdf::21                 117809                       # What write queue length does an incoming req see
system.mem_ctrls.wrQLenPdf::22                 117021                       # What write queue length does an incoming req see
system.mem_ctrls.wrQLenPdf::23                 116746                       # What write queue length does an incoming req see
system.mem_ctrls.wrQLenPdf::24                 116821                       # What write queue length does an incoming req see
system.mem_ctrls.wrQLenPdf::25                 116969                       # What write queue length does an incoming req see
system.mem_ctrls.wrQLenPdf::26                 117455                       # What write queue length does an incoming req see
system.mem_ctrls.wrQLenPdf::27                 117252                       # What write queue length does an incoming req see
system.mem_ctrls.wrQLenPdf::28                 117374                       # What write queue length does an incoming req see
system.mem_ctrls.wrQLenPdf::29                 118905                       # What write queue length does an incoming req see
system.mem_ctrls.wrQLenPdf::30                 119285                       # What write queue length does an incoming req see
system.mem_ctrls.wrQLenPdf::31                 116547                       # What write queue length does an incoming req see
system.mem_ctrls.wrQLenPdf::32                 116444                       # What write queue length does an incoming req see
system.mem_ctrls.wrQLenPdf::33                    404                       # What write queue length does an incoming req see
system.mem_ctrls.wrQLenPdf::34                     62                       # What write queue length does an incoming req see
system.mem_ctrls.wrQLenPdf::35                     11                       # What write queue length does an incoming req see
system.mem_ctrls.wrQLenPdf::36                      5                       # What write queue length does an incoming req see
system.mem_ctrls.wrQLenPdf::37                      1                       # What write queue length does an incoming req see
system.mem_ctrls.wrQLenPdf::38                      3                       # What write queue length does an incoming req see
system.mem_ctrls.wrQLenPdf::39                      2                       # What write queue length does an incoming req see
system.mem_ctrls.wrQLenPdf::40                      3                       # What write queue length does an incoming req see
system.mem_ctrls.wrQLenPdf::41                      2                       # What write queue length does an incoming req see
system.mem_ctrls.wrQLenPdf::42                      2                       # What write queue length does an incoming req see
system.mem_ctrls.wrQLenPdf::43                      1                       # What write queue length does an incoming req see
system.mem_ctrls.wrQLenPdf::44                      2                       # What write queue length does an incoming req see
system.mem_ctrls.wrQLenPdf::45                      1                       # What write queue length does an incoming req see
system.mem_ctrls.wrQLenPdf::46                      2                       # What write queue length does an incoming req see
system.mem_ctrls.wrQLenPdf::47                      1                       # What write queue length does an incoming req see
system.mem_ctrls.wrQLenPdf::48                      1                       # What write queue length does an incoming req see
system.mem_ctrls.wrQLenPdf::49                      1                       # What write queue length does an incoming req see
system.mem_ctrls.wrQLenPdf::50                      0                       # What write queue length does an incoming req see
system.mem_ctrls.wrQLenPdf::51                      0                       # What write queue length does an incoming req see
system.mem_ctrls.wrQLenPdf::52                      0                       # What write queue length does an incoming req see
system.mem_ctrls.wrQLenPdf::53                      0                       # What write queue length does an incoming req see
system.mem_ctrls.wrQLenPdf::54                      0                       # What write queue length does an incoming req see
system.mem_ctrls.wrQLenPdf::55                      0                       # What write queue length does an incoming req see
system.mem_ctrls.wrQLenPdf::56                      0                       # What write queue length does an incoming req see
system.mem_ctrls.wrQLenPdf::57                      0                       # What write queue length does an incoming req see
system.mem_ctrls.wrQLenPdf::58                      0                       # What write queue length does an incoming req see
system.mem_ctrls.wrQLenPdf::59                      0                       # What write queue length does an incoming req see
system.mem_ctrls.wrQLenPdf::60                      0                       # What write queue length does an incoming req see
system.mem_ctrls.wrQLenPdf::61                      0                       # What write queue length does an incoming req see
system.mem_ctrls.wrQLenPdf::62                      0                       # What write queue length does an incoming req see
system.mem_ctrls.wrQLenPdf::63                      0                       # What write queue length does an incoming req see
system.mem_ctrls.bytesPerActivate::samples      5122283                       # Bytes accessed per row activation
system.mem_ctrls.bytesPerActivate::mean     72.194634                       # Bytes accessed per row activation
system.mem_ctrls.bytesPerActivate::gmean    68.965326                       # Bytes accessed per row activation
system.mem_ctrls.bytesPerActivate::stdev    38.939654                       # Bytes accessed per row activation
system.mem_ctrls.bytesPerActivate::0-127      4633807     90.46%     90.46% # Bytes accessed per row activation
system.mem_ctrls.bytesPerActivate::128-255       462754      9.03%     99.50% # Bytes accessed per row activation
system.mem_ctrls.bytesPerActivate::256-383        14946      0.29%     99.79% # Bytes accessed per row activation
system.mem_ctrls.bytesPerActivate::384-511         4899      0.10%     99.89% # Bytes accessed per row activation
system.mem_ctrls.bytesPerActivate::512-639          611      0.01%     99.90% # Bytes accessed per row activation
system.mem_ctrls.bytesPerActivate::640-767          493      0.01%     99.91% # Bytes accessed per row activation
system.mem_ctrls.bytesPerActivate::768-895          451      0.01%     99.92% # Bytes accessed per row activation
system.mem_ctrls.bytesPerActivate::896-1023          444      0.01%     99.92% # Bytes accessed per row activation
system.mem_ctrls.bytesPerActivate::1024-1151         3878      0.08%    100.00% # Bytes accessed per row activation
system.mem_ctrls.bytesPerActivate::total      5122283                       # Bytes accessed per row activation
system.mem_ctrls.rdPerTurnAround::samples       116409                       # Reads before turning the bus around for writes
system.mem_ctrls.rdPerTurnAround::mean      32.419048                       # Reads before turning the bus around for writes
system.mem_ctrls.rdPerTurnAround::stdev     11.484915                       # Reads before turning the bus around for writes
system.mem_ctrls.rdPerTurnAround::0-15           2351      2.02%      2.02% # Reads before turning the bus around for writes
system.mem_ctrls.rdPerTurnAround::16-31         55845     47.97%     49.99% # Reads before turning the bus around for writes
system.mem_ctrls.rdPerTurnAround::32-47         53269     45.76%     95.75% # Reads before turning the bus around for writes
system.mem_ctrls.rdPerTurnAround::48-63          4100      3.52%     99.27% # Reads before turning the bus around for writes
system.mem_ctrls.rdPerTurnAround::64-79           211      0.18%     99.46% # Reads before turning the bus around for writes
system.mem_ctrls.rdPerTurnAround::80-95           106      0.09%     99.55% # Reads before turning the bus around for writes
system.mem_ctrls.rdPerTurnAround::96-111          108      0.09%     99.64% # Reads before turning the bus around for writes
system.mem_ctrls.rdPerTurnAround::112-127          117      0.10%     99.74% # Reads before turning the bus around for writes
system.mem_ctrls.rdPerTurnAround::128-143           96      0.08%     99.82% # Reads before turning the bus around for writes
system.mem_ctrls.rdPerTurnAround::144-159           83      0.07%     99.89% # Reads before turning the bus around for writes
system.mem_ctrls.rdPerTurnAround::160-175           56      0.05%     99.94% # Reads before turning the bus around for writes
system.mem_ctrls.rdPerTurnAround::176-191           29      0.02%     99.97% # Reads before turning the bus around for writes
system.mem_ctrls.rdPerTurnAround::192-207           15      0.01%     99.98% # Reads before turning the bus around for writes
system.mem_ctrls.rdPerTurnAround::208-223            9      0.01%     99.99% # Reads before turning the bus around for writes
system.mem_ctrls.rdPerTurnAround::224-239            4      0.00%     99.99% # Reads before turning the bus around for writes
system.mem_ctrls.rdPerTurnAround::240-255            4      0.00%     99.99% # Reads before turning the bus around for writes
system.mem_ctrls.rdPerTurnAround::256-271            2      0.00%    100.00% # Reads before turning the bus around for writes
system.mem_ctrls.rdPerTurnAround::272-287            2      0.00%    100.00% # Reads before turning the bus around for writes
system.mem_ctrls.rdPerTurnAround::336-351            2      0.00%    100.00% # Reads before turning the bus around for writes
system.mem_ctrls.rdPerTurnAround::total        116409                       # Reads before turning the bus around for writes
system.mem_ctrls.wrPerTurnAround::samples       116409                       # Writes before turning the bus around for reads
system.mem_ctrls.wrPerTurnAround::mean      17.218600                       # Writes before turning the bus around for reads
system.mem_ctrls.wrPerTurnAround::gmean     17.181325                       # Writes before turning the bus around for reads
system.mem_ctrls.wrPerTurnAround::stdev      1.154588                       # Writes before turning the bus around for reads
system.mem_ctrls.wrPerTurnAround::16            49231     42.29%     42.29% # Writes before turning the bus around for reads
system.mem_ctrls.wrPerTurnAround::17             3392      2.91%     45.21% # Writes before turning the bus around for reads
system.mem_ctrls.wrPerTurnAround::18            54728     47.01%     92.22% # Writes before turning the bus around for reads
system.mem_ctrls.wrPerTurnAround::19             8098      6.96%     99.18% # Writes before turning the bus around for reads
system.mem_ctrls.wrPerTurnAround::20              796      0.68%     99.86% # Writes before turning the bus around for reads
system.mem_ctrls.wrPerTurnAround::21               72      0.06%     99.92% # Writes before turning the bus around for reads
system.mem_ctrls.wrPerTurnAround::22               14      0.01%     99.93% # Writes before turning the bus around for reads
system.mem_ctrls.wrPerTurnAround::23               18      0.02%     99.95% # Writes before turning the bus around for reads
system.mem_ctrls.wrPerTurnAround::24                4      0.00%     99.95% # Writes before turning the bus around for reads
system.mem_ctrls.wrPerTurnAround::25                3      0.00%     99.95% # Writes before turning the bus around for reads
system.mem_ctrls.wrPerTurnAround::26                8      0.01%     99.96% # Writes before turning the bus around for reads
system.mem_ctrls.wrPerTurnAround::28                1      0.00%     99.96% # Writes before turning the bus around for reads
system.mem_ctrls.wrPerTurnAround::29                4      0.00%     99.97% # Writes before turning the bus around for reads
system.mem_ctrls.wrPerTurnAround::30                7      0.01%     99.97% # Writes before turning the bus around for reads
system.mem_ctrls.wrPerTurnAround::32                2      0.00%     99.97% # Writes before turning the bus around for reads
system.mem_ctrls.wrPerTurnAround::33                1      0.00%     99.97% # Writes before turning the bus around for reads
system.mem_ctrls.wrPerTurnAround::34                6      0.01%     99.98% # Writes before turning the bus around for reads
system.mem_ctrls.wrPerTurnAround::35               16      0.01%     99.99% # Writes before turning the bus around for reads
system.mem_ctrls.wrPerTurnAround::37                1      0.00%     99.99% # Writes before turning the bus around for reads
system.mem_ctrls.wrPerTurnAround::40                1      0.00%     99.99% # Writes before turning the bus around for reads
system.mem_ctrls.wrPerTurnAround::41                5      0.00%    100.00% # Writes before turning the bus around for reads
system.mem_ctrls.wrPerTurnAround::44                1      0.00%    100.00% # Writes before turning the bus around for reads
system.mem_ctrls.wrPerTurnAround::total        116409                       # Writes before turning the bus around for reads
system.mem_ctrls.totQLat                  85149934674                       # Total ticks spent queuing
system.mem_ctrls.totMemAccLat            155907690924                       # Total ticks spent from burst creation until serviced by the DRAM
system.mem_ctrls.totBusLat                18868735000                       # Total ticks spent in databus transfers
system.mem_ctrls.avgQLat                     22563.76                       # Average queueing delay per DRAM burst
system.mem_ctrls.avgBusLat                    5000.00                       # Average bus latency per DRAM burst
system.mem_ctrls.avgMemAccLat                41313.76                       # Average memory access latency per DRAM burst
system.mem_ctrls.avgRdBW                       300.95                       # Average DRAM read bandwidth in MiByte/s
system.mem_ctrls.avgWrBW                       159.85                       # Average achieved write bandwidth in MiByte/s
system.mem_ctrls.avgRdBWSys                    300.99                       # Average system read bandwidth in MiByte/s
system.mem_ctrls.avgWrBWSys                    159.85                       # Average system write bandwidth in MiByte/s
system.mem_ctrls.peakBW                      12800.00                       # Theoretical peak bandwidth in MiByte/s
system.mem_ctrls.busUtil                         3.60                       # Data bus utilization in percentage
system.mem_ctrls.busUtilRead                     2.35                       # Data bus utilization in percentage for reads
system.mem_ctrls.busUtilWrite                    1.25                       # Data bus utilization in percentage for writes
system.mem_ctrls.avgRdQLen                       1.00                       # Average read queue length when enqueuing
system.mem_ctrls.avgWrQLen                      24.95                       # Average write queue length when enqueuing
system.mem_ctrls.readRowHits                   574058                       # Number of row buffer hits during reads
system.mem_ctrls.writeRowHits                   81806                       # Number of row buffer hits during writes
system.mem_ctrls.readRowHitRate                 15.21                       # Row buffer hit rate for reads
system.mem_ctrls.writeRowHitRate                 4.08                       # Row buffer hit rate for writes
system.mem_ctrls.avgGap                     138876.16                       # Average gap between requests
system.mem_ctrls.pageHitRate                    11.35                       # Row buffer hit rate, read and write combined
system.mem_ctrls_0.actEnergy              19628504280                       # Energy for activate commands per rank (pJ)
system.mem_ctrls_0.preEnergy              10709997375                       # Energy for precharge commands per rank (pJ)
system.mem_ctrls_0.readEnergy             15105339600                       # Energy for read commands per rank (pJ)
system.mem_ctrls_0.writeEnergy             6509840400                       # Energy for write commands per rank (pJ)
system.mem_ctrls_0.refreshEnergy          52956352800                       # Energy for refresh commands per rank (pJ)
system.mem_ctrls_0.actBackEnergy         517402018800                       # Energy for active background per rank (pJ)
system.mem_ctrls_0.preBackEnergy          32608063500                       # Energy for precharge background per rank (pJ)
system.mem_ctrls_0.totalEnergy           654920116755                       # Total energy per rank (pJ)
system.mem_ctrls_0.averagePower            807.763042                       # Core power per rank (mW)
system.mem_ctrls_0.memoryStateTime::IDLE  47539747501                       # Time in different power states
system.mem_ctrls_0.memoryStateTime::REF   26797940000                       # Time in different power states
system.mem_ctrls_0.memoryStateTime::PRE_PDN            0                       # Time in different power states
system.mem_ctrls_0.memoryStateTime::ACT  728187241999                       # Time in different power states
system.mem_ctrls_0.memoryStateTime::ACT_PDN            0                       # Time in different power states
system.mem_ctrls_1.actEnergy              19146244320                       # Energy for activate commands per rank (pJ)
system.mem_ctrls_1.preEnergy              10446859500                       # Energy for precharge commands per rank (pJ)
system.mem_ctrls_1.readEnergy             14640771600                       # Energy for read commands per rank (pJ)
system.mem_ctrls_1.writeEnergy             6482896560                       # Energy for write commands per rank (pJ)
system.mem_ctrls_1.refreshEnergy          52956352800                       # Energy for refresh commands per rank (pJ)
system.mem_ctrls_1.actBackEnergy         517422949200                       # Energy for active background per rank (pJ)
system.mem_ctrls_1.preBackEnergy          32589703500                       # Energy for precharge background per rank (pJ)
system.mem_ctrls_1.totalEnergy           653685777480                       # Total energy per rank (pJ)
system.mem_ctrls_1.averagePower            806.240637                       # Core power per rank (mW)
system.mem_ctrls_1.memoryStateTime::IDLE  48007528000                       # Time in different power states
system.mem_ctrls_1.memoryStateTime::REF   26797940000                       # Time in different power states
system.mem_ctrls_1.memoryStateTime::PRE_PDN            0                       # Time in different power states
system.mem_ctrls_1.memoryStateTime::ACT  727715533250                       # Time in different power states
system.mem_ctrls_1.memoryStateTime::ACT_PDN            0                       # Time in different power states
system.cpu_voltage_domain.voltage                   1                       # Voltage in Volts
system.cpu_clk_domain.clock                       500                       # Clock period in ticks
system.cpu0.apic_clk_domain.clock                8000                       # Clock period in ticks
system.cpu0.numCycles                      1607021923                       # number of cpu cycles simulated
system.cpu0.numWorkItemsStarted                     0                       # number of work items this cpu started
system.cpu0.numWorkItemsCompleted                   0                       # number of work items this cpu completed
system.cpu0.kern.inst.arm                           0                       # number of arm instructions executed
system.cpu0.kern.inst.quiesce                       0                       # number of quiesce instructions executed
system.cpu0.committedInsts                    2191250                       # Number of instructions committed
system.cpu0.committedOps                      4418377                       # Number of ops (including micro ops) committed
system.cpu0.num_int_alu_accesses              4306459                       # Number of integer alu accesses
system.cpu0.num_fp_alu_accesses                   372                       # Number of float alu accesses
system.cpu0.num_func_calls                      95816                       # number of times a function call or return occured
system.cpu0.num_conditional_control_insts       370427                       # number of instructions that are conditional controls
system.cpu0.num_int_insts                     4306459                       # number of integer instructions
system.cpu0.num_fp_insts                          372                       # number of float instructions
system.cpu0.num_int_register_reads            8317967                       # number of times the integer registers were read
system.cpu0.num_int_register_writes           3522697                       # number of times the integer registers were written
system.cpu0.num_fp_register_reads                 596                       # number of times the floating registers were read
system.cpu0.num_fp_register_writes                261                       # number of times the floating registers were written
system.cpu0.num_cc_register_reads             2757988                       # number of times the CC registers were read
system.cpu0.num_cc_register_writes            1687586                       # number of times the CC registers were written
system.cpu0.num_mem_refs                       866993                       # number of memory refs
system.cpu0.num_load_insts                     534562                       # Number of load instructions
system.cpu0.num_store_insts                    332431                       # Number of store instructions
system.cpu0.num_idle_cycles              1595098314.774475                       # Number of idle cycles
system.cpu0.num_busy_cycles              11923608.225526                       # Number of busy cycles
system.cpu0.not_idle_fraction                0.007420                       # Percentage of non-idle cycles
system.cpu0.idle_fraction                    0.992580                       # Percentage of idle cycles
system.cpu0.Branches                           498596                       # Number of branches fetched
system.cpu0.op_class::No_OpClass                32561      0.74%      0.74% # Class of executed instruction
system.cpu0.op_class::IntAlu                  3505659     79.34%     80.08% # Class of executed instruction
system.cpu0.op_class::IntMult                    4006      0.09%     80.17% # Class of executed instruction
system.cpu0.op_class::IntDiv                     9002      0.20%     80.37% # Class of executed instruction
system.cpu0.op_class::FloatAdd                    244      0.01%     80.38% # Class of executed instruction
system.cpu0.op_class::FloatCmp                      0      0.00%     80.38% # Class of executed instruction
system.cpu0.op_class::FloatCvt                      0      0.00%     80.38% # Class of executed instruction
system.cpu0.op_class::FloatMult                     0      0.00%     80.38% # Class of executed instruction
system.cpu0.op_class::FloatDiv                      0      0.00%     80.38% # Class of executed instruction
system.cpu0.op_class::FloatSqrt                     0      0.00%     80.38% # Class of executed instruction
system.cpu0.op_class::SimdAdd                       0      0.00%     80.38% # Class of executed instruction
system.cpu0.op_class::SimdAddAcc                    0      0.00%     80.38% # Class of executed instruction
system.cpu0.op_class::SimdAlu                       0      0.00%     80.38% # Class of executed instruction
system.cpu0.op_class::SimdCmp                       0      0.00%     80.38% # Class of executed instruction
system.cpu0.op_class::SimdCvt                       0      0.00%     80.38% # Class of executed instruction
system.cpu0.op_class::SimdMisc                      0      0.00%     80.38% # Class of executed instruction
system.cpu0.op_class::SimdMult                      0      0.00%     80.38% # Class of executed instruction
system.cpu0.op_class::SimdMultAcc                   0      0.00%     80.38% # Class of executed instruction
system.cpu0.op_class::SimdShift                     0      0.00%     80.38% # Class of executed instruction
system.cpu0.op_class::SimdShiftAcc                  0      0.00%     80.38% # Class of executed instruction
system.cpu0.op_class::SimdSqrt                      0      0.00%     80.38% # Class of executed instruction
system.cpu0.op_class::SimdFloatAdd                  0      0.00%     80.38% # Class of executed instruction
system.cpu0.op_class::SimdFloatAlu                  0      0.00%     80.38% # Class of executed instruction
system.cpu0.op_class::SimdFloatCmp                  0      0.00%     80.38% # Class of executed instruction
system.cpu0.op_class::SimdFloatCvt                  0      0.00%     80.38% # Class of executed instruction
system.cpu0.op_class::SimdFloatDiv                  0      0.00%     80.38% # Class of executed instruction
system.cpu0.op_class::SimdFloatMisc                 0      0.00%     80.38% # Class of executed instruction
system.cpu0.op_class::SimdFloatMult                 0      0.00%     80.38% # Class of executed instruction
system.cpu0.op_class::SimdFloatMultAcc              0      0.00%     80.38% # Class of executed instruction
system.cpu0.op_class::SimdFloatSqrt                 0      0.00%     80.38% # Class of executed instruction
system.cpu0.op_class::MemRead                  534562     12.10%     92.48% # Class of executed instruction
system.cpu0.op_class::MemWrite                 332431      7.52%    100.00% # Class of executed instruction
system.cpu0.op_class::IprAccess                     0      0.00%    100.00% # Class of executed instruction
system.cpu0.op_class::InstPrefetch                  0      0.00%    100.00% # Class of executed instruction
system.cpu0.op_class::total                   4418465                       # Class of executed instruction
system.cpu1.apic_clk_domain.clock                8000                       # Clock period in ticks
system.cpu1.numCycles                      1604220495                       # number of cpu cycles simulated
system.cpu1.numWorkItemsStarted                     0                       # number of work items this cpu started
system.cpu1.numWorkItemsCompleted                   0                       # number of work items this cpu completed
system.cpu1.kern.inst.arm                           0                       # number of arm instructions executed
system.cpu1.kern.inst.quiesce                       0                       # number of quiesce instructions executed
system.cpu1.committedInsts                    2189765                       # Number of instructions committed
system.cpu1.committedOps                      4423998                       # Number of ops (including micro ops) committed
system.cpu1.num_int_alu_accesses              4355471                       # Number of integer alu accesses
system.cpu1.num_fp_alu_accesses                    68                       # Number of float alu accesses
system.cpu1.num_func_calls                     105056                       # number of times a function call or return occured
system.cpu1.num_conditional_control_insts       382260                       # number of instructions that are conditional controls
system.cpu1.num_int_insts                     4355471                       # number of integer instructions
system.cpu1.num_fp_insts                           68                       # number of float instructions
system.cpu1.num_int_register_reads            8445468                       # number of times the integer registers were read
system.cpu1.num_int_register_writes           3566353                       # number of times the integer registers were written
system.cpu1.num_fp_register_reads                  70                       # number of times the floating registers were read
system.cpu1.num_fp_register_writes                 62                       # number of times the floating registers were written
system.cpu1.num_cc_register_reads             2790323                       # number of times the CC registers were read
system.cpu1.num_cc_register_writes            1534920                       # number of times the CC registers were written
system.cpu1.num_mem_refs                       867376                       # number of memory refs
system.cpu1.num_load_insts                     558439                       # Number of load instructions
system.cpu1.num_store_insts                    308937                       # Number of store instructions
system.cpu1.num_idle_cycles              1594636745.013269                       # Number of idle cycles
system.cpu1.num_busy_cycles              9583749.986731                       # Number of busy cycles
system.cpu1.not_idle_fraction                0.005974                       # Percentage of non-idle cycles
system.cpu1.idle_fraction                    0.994026                       # Percentage of idle cycles
system.cpu1.Branches                           521155                       # Number of branches fetched
system.cpu1.op_class::No_OpClass                35345      0.80%      0.80% # Class of executed instruction
system.cpu1.op_class::IntAlu                  3510318     79.34%     80.14% # Class of executed instruction
system.cpu1.op_class::IntMult                    7315      0.17%     80.30% # Class of executed instruction
system.cpu1.op_class::IntDiv                     4181      0.09%     80.40% # Class of executed instruction
system.cpu1.op_class::FloatAdd                     24      0.00%     80.40% # Class of executed instruction
system.cpu1.op_class::FloatCmp                      0      0.00%     80.40% # Class of executed instruction
system.cpu1.op_class::FloatCvt                      0      0.00%     80.40% # Class of executed instruction
system.cpu1.op_class::FloatMult                     0      0.00%     80.40% # Class of executed instruction
system.cpu1.op_class::FloatDiv                      0      0.00%     80.40% # Class of executed instruction
system.cpu1.op_class::FloatSqrt                     0      0.00%     80.40% # Class of executed instruction
system.cpu1.op_class::SimdAdd                       0      0.00%     80.40% # Class of executed instruction
system.cpu1.op_class::SimdAddAcc                    0      0.00%     80.40% # Class of executed instruction
system.cpu1.op_class::SimdAlu                       0      0.00%     80.40% # Class of executed instruction
system.cpu1.op_class::SimdCmp                       0      0.00%     80.40% # Class of executed instruction
system.cpu1.op_class::SimdCvt                       0      0.00%     80.40% # Class of executed instruction
system.cpu1.op_class::SimdMisc                      0      0.00%     80.40% # Class of executed instruction
system.cpu1.op_class::SimdMult                      0      0.00%     80.40% # Class of executed instruction
system.cpu1.op_class::SimdMultAcc                   0      0.00%     80.40% # Class of executed instruction
system.cpu1.op_class::SimdShift                     0      0.00%     80.40% # Class of executed instruction
system.cpu1.op_class::SimdShiftAcc                  0      0.00%     80.40% # Class of executed instruction
system.cpu1.op_class::SimdSqrt                      0      0.00%     80.40% # Class of executed instruction
system.cpu1.op_class::SimdFloatAdd                  0      0.00%     80.40% # Class of executed instruction
system.cpu1.op_class::SimdFloatAlu                  0      0.00%     80.40% # Class of executed instruction
system.cpu1.op_class::SimdFloatCmp                  0      0.00%     80.40% # Class of executed instruction
system.cpu1.op_class::SimdFloatCvt                  0      0.00%     80.40% # Class of executed instruction
system.cpu1.op_class::SimdFloatDiv                  0      0.00%     80.40% # Class of executed instruction
system.cpu1.op_class::SimdFloatMisc                 0      0.00%     80.40% # Class of executed instruction
system.cpu1.op_class::SimdFloatMult                 0      0.00%     80.40% # Class of executed instruction
system.cpu1.op_class::SimdFloatMultAcc              0      0.00%     80.40% # Class of executed instruction
system.cpu1.op_class::SimdFloatSqrt                 0      0.00%     80.40% # Class of executed instruction
system.cpu1.op_class::MemRead                  558439     12.62%     93.02% # Class of executed instruction
system.cpu1.op_class::MemWrite                 308937      6.98%    100.00% # Class of executed instruction
system.cpu1.op_class::IprAccess                     0      0.00%    100.00% # Class of executed instruction
system.cpu1.op_class::InstPrefetch                  0      0.00%    100.00% # Class of executed instruction
system.cpu1.op_class::total                   4424559                       # Class of executed instruction
system.cpu2.apic_clk_domain.clock                8000                       # Clock period in ticks
system.cpu2.numCycles                      1603728099                       # number of cpu cycles simulated
system.cpu2.numWorkItemsStarted                     0                       # number of work items this cpu started
system.cpu2.numWorkItemsCompleted                   0                       # number of work items this cpu completed
system.cpu2.kern.inst.arm                           0                       # number of arm instructions executed
system.cpu2.kern.inst.quiesce                       0                       # number of quiesce instructions executed
system.cpu2.committedInsts                    2793012                       # Number of instructions committed
system.cpu2.committedOps                      5496223                       # Number of ops (including micro ops) committed
system.cpu2.num_int_alu_accesses              5409993                       # Number of integer alu accesses
system.cpu2.num_fp_alu_accesses                  1813                       # Number of float alu accesses
system.cpu2.num_func_calls                     133370                       # number of times a function call or return occured
system.cpu2.num_conditional_control_insts       503923                       # number of instructions that are conditional controls
system.cpu2.num_int_insts                     5409993                       # number of integer instructions
system.cpu2.num_fp_insts                         1813                       # number of float instructions
system.cpu2.num_int_register_reads           10589880                       # number of times the integer registers were read
system.cpu2.num_int_register_writes           4378588                       # number of times the integer registers were written
system.cpu2.num_fp_register_reads                3040                       # number of times the floating registers were read
system.cpu2.num_fp_register_writes               1440                       # number of times the floating registers were written
system.cpu2.num_cc_register_reads             3641593                       # number of times the CC registers were read
system.cpu2.num_cc_register_writes            1942921                       # number of times the CC registers were written
system.cpu2.num_mem_refs                      1173189                       # number of memory refs
system.cpu2.num_load_insts                     760046                       # Number of load instructions
system.cpu2.num_store_insts                    413143                       # Number of store instructions
system.cpu2.num_idle_cycles              1591803703.740093                       # Number of idle cycles
system.cpu2.num_busy_cycles              11924395.259907                       # Number of busy cycles
system.cpu2.not_idle_fraction                0.007435                       # Percentage of non-idle cycles
system.cpu2.idle_fraction                    0.992565                       # Percentage of idle cycles
system.cpu2.Branches                           661867                       # Number of branches fetched
system.cpu2.op_class::No_OpClass                29023      0.53%      0.53% # Class of executed instruction
system.cpu2.op_class::IntAlu                  4280123     77.87%     78.40% # Class of executed instruction
system.cpu2.op_class::IntMult                    4208      0.08%     78.48% # Class of executed instruction
system.cpu2.op_class::IntDiv                     8416      0.15%     78.63% # Class of executed instruction
system.cpu2.op_class::FloatAdd                   1356      0.02%     78.65% # Class of executed instruction
system.cpu2.op_class::FloatCmp                      0      0.00%     78.65% # Class of executed instruction
system.cpu2.op_class::FloatCvt                      0      0.00%     78.65% # Class of executed instruction
system.cpu2.op_class::FloatMult                     0      0.00%     78.65% # Class of executed instruction
system.cpu2.op_class::FloatDiv                      0      0.00%     78.65% # Class of executed instruction
system.cpu2.op_class::FloatSqrt                     0      0.00%     78.65% # Class of executed instruction
system.cpu2.op_class::SimdAdd                       0      0.00%     78.65% # Class of executed instruction
system.cpu2.op_class::SimdAddAcc                    0      0.00%     78.65% # Class of executed instruction
system.cpu2.op_class::SimdAlu                       0      0.00%     78.65% # Class of executed instruction
system.cpu2.op_class::SimdCmp                       0      0.00%     78.65% # Class of executed instruction
system.cpu2.op_class::SimdCvt                       0      0.00%     78.65% # Class of executed instruction
system.cpu2.op_class::SimdMisc                      0      0.00%     78.65% # Class of executed instruction
system.cpu2.op_class::SimdMult                      0      0.00%     78.65% # Class of executed instruction
system.cpu2.op_class::SimdMultAcc                   0      0.00%     78.65% # Class of executed instruction
system.cpu2.op_class::SimdShift                     0      0.00%     78.65% # Class of executed instruction
system.cpu2.op_class::SimdShiftAcc                  0      0.00%     78.65% # Class of executed instruction
system.cpu2.op_class::SimdSqrt                      0      0.00%     78.65% # Class of executed instruction
system.cpu2.op_class::SimdFloatAdd                  0      0.00%     78.65% # Class of executed instruction
system.cpu2.op_class::SimdFloatAlu                  0      0.00%     78.65% # Class of executed instruction
system.cpu2.op_class::SimdFloatCmp                  0      0.00%     78.65% # Class of executed instruction
system.cpu2.op_class::SimdFloatCvt                  0      0.00%     78.65% # Class of executed instruction
system.cpu2.op_class::SimdFloatDiv                  0      0.00%     78.65% # Class of executed instruction
system.cpu2.op_class::SimdFloatMisc                 0      0.00%     78.65% # Class of executed instruction
system.cpu2.op_class::SimdFloatMult                 0      0.00%     78.65% # Class of executed instruction
system.cpu2.op_class::SimdFloatMultAcc              0      0.00%     78.65% # Class of executed instruction
system.cpu2.op_class::SimdFloatSqrt                 0      0.00%     78.65% # Class of executed instruction
system.cpu2.op_class::MemRead                  760046     13.83%     92.48% # Class of executed instruction
system.cpu2.op_class::MemWrite                 413143      7.52%    100.00% # Class of executed instruction
system.cpu2.op_class::IprAccess                     0      0.00%    100.00% # Class of executed instruction
system.cpu2.op_class::InstPrefetch                  0      0.00%    100.00% # Class of executed instruction
system.cpu2.op_class::total                   5496315                       # Class of executed instruction
system.cpu3.apic_clk_domain.clock                8000                       # Clock period in ticks
system.cpu3.numCycles                      1604959432                       # number of cpu cycles simulated
system.cpu3.numWorkItemsStarted                     0                       # number of work items this cpu started
system.cpu3.numWorkItemsCompleted                   0                       # number of work items this cpu completed
system.cpu3.kern.inst.arm                           0                       # number of arm instructions executed
system.cpu3.kern.inst.quiesce                       0                       # number of quiesce instructions executed
system.cpu3.committedInsts                  269337840                       # Number of instructions committed
system.cpu3.committedOps                    442680053                       # Number of ops (including micro ops) committed
system.cpu3.num_int_alu_accesses            346652695                       # Number of integer alu accesses
system.cpu3.num_fp_alu_accesses             109594796                       # Number of float alu accesses
system.cpu3.num_func_calls                    5378133                       # number of times a function call or return occured
system.cpu3.num_conditional_control_insts     16429616                       # number of instructions that are conditional controls
system.cpu3.num_int_insts                   346652695                       # number of integer instructions
system.cpu3.num_fp_insts                    109594796                       # number of float instructions
system.cpu3.num_int_register_reads          737327113                       # number of times the integer registers were read
system.cpu3.num_int_register_writes         276152160                       # number of times the integer registers were written
system.cpu3.num_fp_register_reads           204618505                       # number of times the floating registers were read
system.cpu3.num_fp_register_writes          105641815                       # number of times the floating registers were written
system.cpu3.num_cc_register_reads           177519261                       # number of times the CC registers were read
system.cpu3.num_cc_register_writes          152815849                       # number of times the CC registers were written
system.cpu3.num_mem_refs                     92911747                       # number of memory refs
system.cpu3.num_load_insts                   73876326                       # Number of load instructions
system.cpu3.num_store_insts                  19035421                       # Number of store instructions
system.cpu3.num_idle_cycles              18479182.412743                       # Number of idle cycles
system.cpu3.num_busy_cycles              1586480249.587257                       # Number of busy cycles
system.cpu3.not_idle_fraction                0.988486                       # Percentage of non-idle cycles
system.cpu3.idle_fraction                    0.011514                       # Percentage of idle cycles
system.cpu3.Branches                         26504316                       # Number of branches fetched
system.cpu3.op_class::No_OpClass              3913272      0.88%      0.88% # Class of executed instruction
system.cpu3.op_class::IntAlu                254837771     57.57%     58.45% # Class of executed instruction
system.cpu3.op_class::IntMult                    3505      0.00%     58.45% # Class of executed instruction
system.cpu3.op_class::IntDiv                      638      0.00%     58.45% # Class of executed instruction
system.cpu3.op_class::FloatAdd               91015655     20.56%     79.01% # Class of executed instruction
system.cpu3.op_class::FloatCmp                      0      0.00%     79.01% # Class of executed instruction
system.cpu3.op_class::FloatCvt                      0      0.00%     79.01% # Class of executed instruction
system.cpu3.op_class::FloatMult                     0      0.00%     79.01% # Class of executed instruction
system.cpu3.op_class::FloatDiv                      0      0.00%     79.01% # Class of executed instruction
system.cpu3.op_class::FloatSqrt                     0      0.00%     79.01% # Class of executed instruction
system.cpu3.op_class::SimdAdd                       0      0.00%     79.01% # Class of executed instruction
system.cpu3.op_class::SimdAddAcc                    0      0.00%     79.01% # Class of executed instruction
system.cpu3.op_class::SimdAlu                       0      0.00%     79.01% # Class of executed instruction
system.cpu3.op_class::SimdCmp                       0      0.00%     79.01% # Class of executed instruction
system.cpu3.op_class::SimdCvt                       0      0.00%     79.01% # Class of executed instruction
system.cpu3.op_class::SimdMisc                      0      0.00%     79.01% # Class of executed instruction
system.cpu3.op_class::SimdMult                      0      0.00%     79.01% # Class of executed instruction
system.cpu3.op_class::SimdMultAcc                   0      0.00%     79.01% # Class of executed instruction
system.cpu3.op_class::SimdShift                     0      0.00%     79.01% # Class of executed instruction
system.cpu3.op_class::SimdShiftAcc                  0      0.00%     79.01% # Class of executed instruction
system.cpu3.op_class::SimdSqrt                      0      0.00%     79.01% # Class of executed instruction
system.cpu3.op_class::SimdFloatAdd                  0      0.00%     79.01% # Class of executed instruction
system.cpu3.op_class::SimdFloatAlu                  0      0.00%     79.01% # Class of executed instruction
system.cpu3.op_class::SimdFloatCmp                  0      0.00%     79.01% # Class of executed instruction
system.cpu3.op_class::SimdFloatCvt                  0      0.00%     79.01% # Class of executed instruction
system.cpu3.op_class::SimdFloatDiv                  0      0.00%     79.01% # Class of executed instruction
system.cpu3.op_class::SimdFloatMisc                 0      0.00%     79.01% # Class of executed instruction
system.cpu3.op_class::SimdFloatMult                 0      0.00%     79.01% # Class of executed instruction
system.cpu3.op_class::SimdFloatMultAcc              0      0.00%     79.01% # Class of executed instruction
system.cpu3.op_class::SimdFloatSqrt                 0      0.00%     79.01% # Class of executed instruction
system.cpu3.op_class::MemRead                73876326     16.69%     95.70% # Class of executed instruction
system.cpu3.op_class::MemWrite               19035421      4.30%    100.00% # Class of executed instruction
system.cpu3.op_class::IprAccess                     0      0.00%    100.00% # Class of executed instruction
system.cpu3.op_class::InstPrefetch                  0      0.00%    100.00% # Class of executed instruction
system.cpu3.op_class::total                 442682588                       # Class of executed instruction
system.iobus.trans_dist::ReadReq                  554                       # Transaction distribution
system.iobus.trans_dist::ReadResp                 554                       # Transaction distribution
system.iobus.trans_dist::WriteReq                1816                       # Transaction distribution
system.iobus.trans_dist::WriteResp               1816                       # Transaction distribution
system.iobus.trans_dist::MessageReq                75                       # Transaction distribution
system.iobus.trans_dist::MessageResp               75                       # Transaction distribution
system.iobus.pkt_count_system.pc.south_bridge.io_apic.int_master::system.ruby.l1_cntrl0.sequencer.pio-slave-port           30                       # Packet count per connected master and slave (bytes)
system.iobus.pkt_count_system.pc.south_bridge.io_apic.int_master::system.ruby.l1_cntrl1.sequencer.pio-slave-port           30                       # Packet count per connected master and slave (bytes)
system.iobus.pkt_count_system.pc.south_bridge.io_apic.int_master::system.ruby.l1_cntrl2.sequencer.pio-slave-port           32                       # Packet count per connected master and slave (bytes)
system.iobus.pkt_count_system.pc.south_bridge.io_apic.int_master::system.ruby.l1_cntrl3.sequencer.pio-slave-port           32                       # Packet count per connected master and slave (bytes)
system.iobus.pkt_count_system.pc.south_bridge.io_apic.int_master::total          124                       # Packet count per connected master and slave (bytes)
system.iobus.pkt_count_system.ruby.l1_cntrl0.sequencer.mem-master-port::system.pc.south_bridge.ide.pio          588                       # Packet count per connected master and slave (bytes)
system.iobus.pkt_count_system.ruby.l1_cntrl0.sequencer.mem-master-port::system.ruby.l1_cntrl0.sequencer.pio-slave-port          464                       # Packet count per connected master and slave (bytes)
system.iobus.pkt_count_system.ruby.l1_cntrl0.sequencer.mem-master-port::system.ruby.l1_cntrl1.sequencer.pio-slave-port            4                       # Packet count per connected master and slave (bytes)
system.iobus.pkt_count_system.ruby.l1_cntrl0.sequencer.mem-master-port::system.ruby.l1_cntrl3.sequencer.pio-slave-port            4                       # Packet count per connected master and slave (bytes)
system.iobus.pkt_count_system.ruby.l1_cntrl0.sequencer.mem-master-port::total         1060                       # Packet count per connected master and slave (bytes)
system.iobus.pkt_count_system.ruby.l1_cntrl1.sequencer.mem-master-port::system.pc.south_bridge.ide.pio          882                       # Packet count per connected master and slave (bytes)
system.iobus.pkt_count_system.ruby.l1_cntrl1.sequencer.mem-master-port::system.pc.south_bridge.io_apic.pio            6                       # Packet count per connected master and slave (bytes)
system.iobus.pkt_count_system.ruby.l1_cntrl1.sequencer.mem-master-port::system.pc.com_1.pio          174                       # Packet count per connected master and slave (bytes)
system.iobus.pkt_count_system.ruby.l1_cntrl1.sequencer.mem-master-port::system.ruby.l1_cntrl0.sequencer.pio-slave-port            2                       # Packet count per connected master and slave (bytes)
system.iobus.pkt_count_system.ruby.l1_cntrl1.sequencer.mem-master-port::system.ruby.l1_cntrl1.sequencer.pio-slave-port          452                       # Packet count per connected master and slave (bytes)
system.iobus.pkt_count_system.ruby.l1_cntrl1.sequencer.mem-master-port::system.ruby.l1_cntrl2.sequencer.pio-slave-port            2                       # Packet count per connected master and slave (bytes)
system.iobus.pkt_count_system.ruby.l1_cntrl1.sequencer.mem-master-port::total         1518                       # Packet count per connected master and slave (bytes)
system.iobus.pkt_count_system.ruby.l1_cntrl2.sequencer.mem-master-port::system.pc.south_bridge.ide.pio          622                       # Packet count per connected master and slave (bytes)
system.iobus.pkt_count_system.ruby.l1_cntrl2.sequencer.mem-master-port::system.pc.south_bridge.io_apic.pio            8                       # Packet count per connected master and slave (bytes)
system.iobus.pkt_count_system.ruby.l1_cntrl2.sequencer.mem-master-port::system.ruby.l1_cntrl0.sequencer.pio-slave-port            2                       # Packet count per connected master and slave (bytes)
system.iobus.pkt_count_system.ruby.l1_cntrl2.sequencer.mem-master-port::system.ruby.l1_cntrl1.sequencer.pio-slave-port            2                       # Packet count per connected master and slave (bytes)
system.iobus.pkt_count_system.ruby.l1_cntrl2.sequencer.mem-master-port::system.ruby.l1_cntrl2.sequencer.pio-slave-port          456                       # Packet count per connected master and slave (bytes)
system.iobus.pkt_count_system.ruby.l1_cntrl2.sequencer.mem-master-port::system.ruby.l1_cntrl3.sequencer.pio-slave-port            2                       # Packet count per connected master and slave (bytes)
system.iobus.pkt_count_system.ruby.l1_cntrl2.sequencer.mem-master-port::total         1092                       # Packet count per connected master and slave (bytes)
system.iobus.pkt_count_system.ruby.l1_cntrl3.sequencer.mem-master-port::system.pc.south_bridge.ide.pio          622                       # Packet count per connected master and slave (bytes)
system.iobus.pkt_count_system.ruby.l1_cntrl3.sequencer.mem-master-port::system.pc.south_bridge.io_apic.pio            8                       # Packet count per connected master and slave (bytes)
system.iobus.pkt_count_system.ruby.l1_cntrl3.sequencer.mem-master-port::system.pc.com_1.pio            2                       # Packet count per connected master and slave (bytes)
system.iobus.pkt_count_system.ruby.l1_cntrl3.sequencer.mem-master-port::system.ruby.l1_cntrl0.sequencer.pio-slave-port            4                       # Packet count per connected master and slave (bytes)
system.iobus.pkt_count_system.ruby.l1_cntrl3.sequencer.mem-master-port::system.ruby.l1_cntrl1.sequencer.pio-slave-port            2                       # Packet count per connected master and slave (bytes)
system.iobus.pkt_count_system.ruby.l1_cntrl3.sequencer.mem-master-port::system.ruby.l1_cntrl2.sequencer.pio-slave-port            2                       # Packet count per connected master and slave (bytes)
system.iobus.pkt_count_system.ruby.l1_cntrl3.sequencer.mem-master-port::system.ruby.l1_cntrl3.sequencer.pio-slave-port          456                       # Packet count per connected master and slave (bytes)
system.iobus.pkt_count_system.ruby.l1_cntrl3.sequencer.mem-master-port::total         1096                       # Packet count per connected master and slave (bytes)
system.iobus.pkt_count::total                    4890                       # Packet count per connected master and slave (bytes)
system.iobus.pkt_size_system.pc.south_bridge.io_apic.int_master::system.ruby.l1_cntrl0.sequencer.pio-slave-port           60                       # Cumulative packet size per connected master and slave (bytes)
system.iobus.pkt_size_system.pc.south_bridge.io_apic.int_master::system.ruby.l1_cntrl1.sequencer.pio-slave-port           60                       # Cumulative packet size per connected master and slave (bytes)
system.iobus.pkt_size_system.pc.south_bridge.io_apic.int_master::system.ruby.l1_cntrl2.sequencer.pio-slave-port           64                       # Cumulative packet size per connected master and slave (bytes)
system.iobus.pkt_size_system.pc.south_bridge.io_apic.int_master::system.ruby.l1_cntrl3.sequencer.pio-slave-port           64                       # Cumulative packet size per connected master and slave (bytes)
system.iobus.pkt_size_system.pc.south_bridge.io_apic.int_master::total          248                       # Cumulative packet size per connected master and slave (bytes)
system.iobus.pkt_size_system.ruby.l1_cntrl0.sequencer.mem-master-port::system.pc.south_bridge.ide.pio          330                       # Cumulative packet size per connected master and slave (bytes)
system.iobus.pkt_size_system.ruby.l1_cntrl0.sequencer.mem-master-port::system.ruby.l1_cntrl0.sequencer.pio-slave-port          928                       # Cumulative packet size per connected master and slave (bytes)
system.iobus.pkt_size_system.ruby.l1_cntrl0.sequencer.mem-master-port::system.ruby.l1_cntrl1.sequencer.pio-slave-port            8                       # Cumulative packet size per connected master and slave (bytes)
system.iobus.pkt_size_system.ruby.l1_cntrl0.sequencer.mem-master-port::system.ruby.l1_cntrl3.sequencer.pio-slave-port            8                       # Cumulative packet size per connected master and slave (bytes)
system.iobus.pkt_size_system.ruby.l1_cntrl0.sequencer.mem-master-port::total         1274                       # Cumulative packet size per connected master and slave (bytes)
system.iobus.pkt_size_system.ruby.l1_cntrl1.sequencer.mem-master-port::system.pc.south_bridge.ide.pio          504                       # Cumulative packet size per connected master and slave (bytes)
system.iobus.pkt_size_system.ruby.l1_cntrl1.sequencer.mem-master-port::system.pc.south_bridge.io_apic.pio           12                       # Cumulative packet size per connected master and slave (bytes)
system.iobus.pkt_size_system.ruby.l1_cntrl1.sequencer.mem-master-port::system.pc.com_1.pio           87                       # Cumulative packet size per connected master and slave (bytes)
system.iobus.pkt_size_system.ruby.l1_cntrl1.sequencer.mem-master-port::system.ruby.l1_cntrl0.sequencer.pio-slave-port            4                       # Cumulative packet size per connected master and slave (bytes)
system.iobus.pkt_size_system.ruby.l1_cntrl1.sequencer.mem-master-port::system.ruby.l1_cntrl1.sequencer.pio-slave-port          904                       # Cumulative packet size per connected master and slave (bytes)
system.iobus.pkt_size_system.ruby.l1_cntrl1.sequencer.mem-master-port::system.ruby.l1_cntrl2.sequencer.pio-slave-port            4                       # Cumulative packet size per connected master and slave (bytes)
system.iobus.pkt_size_system.ruby.l1_cntrl1.sequencer.mem-master-port::total         1515                       # Cumulative packet size per connected master and slave (bytes)
system.iobus.pkt_size_system.ruby.l1_cntrl2.sequencer.mem-master-port::system.pc.south_bridge.ide.pio          350                       # Cumulative packet size per connected master and slave (bytes)
system.iobus.pkt_size_system.ruby.l1_cntrl2.sequencer.mem-master-port::system.pc.south_bridge.io_apic.pio           16                       # Cumulative packet size per connected master and slave (bytes)
system.iobus.pkt_size_system.ruby.l1_cntrl2.sequencer.mem-master-port::system.ruby.l1_cntrl0.sequencer.pio-slave-port            4                       # Cumulative packet size per connected master and slave (bytes)
system.iobus.pkt_size_system.ruby.l1_cntrl2.sequencer.mem-master-port::system.ruby.l1_cntrl1.sequencer.pio-slave-port            4                       # Cumulative packet size per connected master and slave (bytes)
system.iobus.pkt_size_system.ruby.l1_cntrl2.sequencer.mem-master-port::system.ruby.l1_cntrl2.sequencer.pio-slave-port          912                       # Cumulative packet size per connected master and slave (bytes)
system.iobus.pkt_size_system.ruby.l1_cntrl2.sequencer.mem-master-port::system.ruby.l1_cntrl3.sequencer.pio-slave-port            4                       # Cumulative packet size per connected master and slave (bytes)
system.iobus.pkt_size_system.ruby.l1_cntrl2.sequencer.mem-master-port::total         1290                       # Cumulative packet size per connected master and slave (bytes)
system.iobus.pkt_size_system.ruby.l1_cntrl3.sequencer.mem-master-port::system.pc.south_bridge.ide.pio          350                       # Cumulative packet size per connected master and slave (bytes)
system.iobus.pkt_size_system.ruby.l1_cntrl3.sequencer.mem-master-port::system.pc.south_bridge.io_apic.pio           16                       # Cumulative packet size per connected master and slave (bytes)
system.iobus.pkt_size_system.ruby.l1_cntrl3.sequencer.mem-master-port::system.pc.com_1.pio            1                       # Cumulative packet size per connected master and slave (bytes)
system.iobus.pkt_size_system.ruby.l1_cntrl3.sequencer.mem-master-port::system.ruby.l1_cntrl0.sequencer.pio-slave-port            8                       # Cumulative packet size per connected master and slave (bytes)
system.iobus.pkt_size_system.ruby.l1_cntrl3.sequencer.mem-master-port::system.ruby.l1_cntrl1.sequencer.pio-slave-port            4                       # Cumulative packet size per connected master and slave (bytes)
system.iobus.pkt_size_system.ruby.l1_cntrl3.sequencer.mem-master-port::system.ruby.l1_cntrl2.sequencer.pio-slave-port            4                       # Cumulative packet size per connected master and slave (bytes)
system.iobus.pkt_size_system.ruby.l1_cntrl3.sequencer.mem-master-port::system.ruby.l1_cntrl3.sequencer.pio-slave-port          912                       # Cumulative packet size per connected master and slave (bytes)
system.iobus.pkt_size_system.ruby.l1_cntrl3.sequencer.mem-master-port::total         1295                       # Cumulative packet size per connected master and slave (bytes)
system.iobus.pkt_size::total                     5622                       # Cumulative packet size per connected master and slave (bytes)
system.iobus.reqLayer2.occupancy              2355000                       # Layer occupancy (ticks)
system.iobus.reqLayer2.utilization                0.0                       # Layer utilization (%)
system.iobus.reqLayer8.occupancy                19997                       # Layer occupancy (ticks)
system.iobus.reqLayer8.utilization                0.0                       # Layer utilization (%)
system.iobus.reqLayer12.occupancy              113000                       # Layer occupancy (ticks)
system.iobus.reqLayer12.utilization               0.0                       # Layer utilization (%)
system.iobus.reqLayer17.occupancy              610483                       # Layer occupancy (ticks)
system.iobus.reqLayer17.utilization               0.0                       # Layer utilization (%)
system.iobus.reqLayer18.occupancy              605985                       # Layer occupancy (ticks)
system.iobus.reqLayer18.utilization               0.0                       # Layer utilization (%)
system.iobus.reqLayer19.occupancy              604982                       # Layer occupancy (ticks)
system.iobus.reqLayer19.utilization               0.0                       # Layer utilization (%)
system.iobus.reqLayer20.occupancy              661272                       # Layer occupancy (ticks)
system.iobus.reqLayer20.utilization               0.0                       # Layer utilization (%)
system.iobus.respLayer0.occupancy              104441                       # Layer occupancy (ticks)
system.iobus.respLayer0.utilization               0.0                       # Layer utilization (%)
system.iobus.respLayer2.occupancy              758000                       # Layer occupancy (ticks)
system.iobus.respLayer2.utilization               0.0                       # Layer utilization (%)
system.iobus.respLayer4.occupancy             1080000                       # Layer occupancy (ticks)
system.iobus.respLayer4.utilization               0.0                       # Layer utilization (%)
system.iobus.respLayer6.occupancy              777000                       # Layer occupancy (ticks)
system.iobus.respLayer6.utilization               0.0                       # Layer utilization (%)
system.iobus.respLayer8.occupancy              779500                       # Layer occupancy (ticks)
system.iobus.respLayer8.utilization               0.0                       # Layer utilization (%)
[...]
system.ruby.L1Cache_Controller.O.L1_Replacement::total         1011                      
system.ruby.L1Cache_Controller.O.Fwd_GETX |        1105     19.86%     19.86% |        1977     35.54%     55.40% |        1078     19.38%     74.78% |        1403     25.22%    100.00%
system.ruby.L1Cache_Controller.O.Fwd_GETX::total         5563                      
system.ruby.L1Cache_Controller.O.Fwd_GETS |        2596     19.76%     19.76% |        8096     61.63%     81.39% |         779      5.93%     87.32% |        1665     12.68%    100.00%
system.ruby.L1Cache_Controller.O.Fwd_GETS::total        13136                      
system.ruby.L1Cache_Controller.M.Load    |       40188      0.27%      0.27% |       82609      0.56%      0.83% |     3104689     21.09%     21.92% |    11495362     78.08%    100.00%
system.ruby.L1Cache_Controller.M.Load::total     14722848                      
system.ruby.L1Cache_Controller.M.Store   |        2313      1.02%      1.02% |        5341      2.36%      3.38% |      106188     46.91%     50.30% |      112502     49.70%    100.00%
system.ruby.L1Cache_Controller.M.Store::total       226344                      
system.ruby.L1Cache_Controller.M.L1_Replacement |        3080      0.19%      0.19% |        3983      0.24%      0.43% |      673878     40.61%     41.03% |      978562     58.97%    100.00%
system.ruby.L1Cache_Controller.M.L1_Replacement::total      1659503                      
system.ruby.L1Cache_Controller.M.Fwd_GETX |         324     21.12%     21.12% |         259     16.88%     38.01% |         677     44.13%     82.14% |         274     17.86%    100.00%
system.ruby.L1Cache_Controller.M.Fwd_GETX::total         1534                      
system.ruby.L1Cache_Controller.M.Fwd_GETS |        1337     20.13%     20.13% |        2194     33.04%     53.17% |        1384     20.84%     74.01% |        1726     25.99%    100.00%
system.ruby.L1Cache_Controller.M.Fwd_GETS::total         6641                      
system.ruby.L1Cache_Controller.M_W.Load  |        4283      2.06%      2.06% |        7919      3.82%      5.88% |       82645     39.82%     45.70% |      112696     54.30%    100.00%
system.ruby.L1Cache_Controller.M_W.Load::total       207543                      
system.ruby.L1Cache_Controller.M_W.Store |        1060      3.43%      3.43% |        1750      5.66%      9.08% |       22568     72.94%     82.02% |        5563     17.98%    100.00%
system.ruby.L1Cache_Controller.M_W.Store::total        30941                      
system.ruby.L1Cache_Controller.M_W.L1_Replacement |           0      0.00%      0.00% |           0      0.00%      0.00% |          56     49.12%     49.12% |          58     50.88%    100.00%
system.ruby.L1Cache_Controller.M_W.L1_Replacement::total          114                      
system.ruby.L1Cache_Controller.M_W.Fwd_GETX |           0      0.00%      0.00% |          22     78.57%     78.57% |           0      0.00%     78.57% |           6     21.43%    100.00%
system.ruby.L1Cache_Controller.M_W.Fwd_GETX::total           28                      
system.ruby.L1Cache_Controller.M_W.Fwd_GETS |           9      5.26%      5.26% |         106     61.99%     67.25% |           9      5.26%     72.51% |          47     27.49%    100.00%
system.ruby.L1Cache_Controller.M_W.Fwd_GETS::total          171                      
system.ruby.L1Cache_Controller.M_W.Use_Timeout |        6943      0.37%      0.37% |       11726      0.62%      0.99% |      782032     41.29%     42.28% |     1093159     57.72%    100.00%
system.ruby.L1Cache_Controller.M_W.Use_Timeout::total      1893860                      
system.ruby.L1Cache_Controller.MM.Load   |      443309      1.63%      1.63% |      802615      2.95%      4.58% |    10299735     37.84%     42.42% |    15673534     57.58%    100.00%
system.ruby.L1Cache_Controller.MM.Load::total     27219193                      
system.ruby.L1Cache_Controller.MM.Store  |      458724      1.40%      1.40% |      802994      2.44%      3.84% |    12057144     36.68%     40.51% |    19556357     59.49%    100.00%
system.ruby.L1Cache_Controller.MM.Store::total     32875219                      
system.ruby.L1Cache_Controller.MM.L1_Replacement |       24103      0.50%      0.50% |       26037      0.54%      1.04% |     2323765     48.00%     49.04% |     2466915     50.96%    100.00%
system.ruby.L1Cache_Controller.MM.L1_Replacement::total      4840820                      
system.ruby.L1Cache_Controller.MM.Fwd_GETX |         678     29.10%     29.10% |         548     23.52%     52.62% |         590     25.32%     77.94% |         514     22.06%    100.00%
system.ruby.L1Cache_Controller.MM.Fwd_GETX::total         2330                      
system.ruby.L1Cache_Controller.MM.Fwd_GETS |        3764     39.22%     39.22% |        2238     23.32%     62.53% |        2086     21.73%     84.27% |        1510     15.73%    100.00%
system.ruby.L1Cache_Controller.MM.Fwd_GETS::total         9598                      
system.ruby.L1Cache_Controller.MM.Fwd_DMA |         113     25.34%     25.34% |         173     38.79%     64.13% |         129     28.92%     93.05% |          31      6.95%    100.00%
system.ruby.L1Cache_Controller.MM.Fwd_DMA::total          446                      
system.ruby.L1Cache_Controller.MM_W.Load |        7688     15.00%     15.00% |        3706      7.23%     22.23% |       31309     61.09%     83.32% |        8548     16.68%    100.00%
system.ruby.L1Cache_Controller.MM_W.Load::total        51251                      
system.ruby.L1Cache_Controller.MM_W.Store |       94795      2.14%      2.14% |       83544      1.88%      4.02% |     1852585     41.77%     45.79% |     2404307     54.21%    100.00%
system.ruby.L1Cache_Controller.MM_W.Store::total      4435231                      
system.ruby.L1Cache_Controller.MM_W.L1_Replacement |           0      0.00%      0.00% |           0      0.00%      0.00% |          16     28.07%     28.07% |          41     71.93%    100.00%
system.ruby.L1Cache_Controller.MM_W.L1_Replacement::total           57                      
system.ruby.L1Cache_Controller.MM_W.Fwd_GETX |           2     40.00%     40.00% |           2     40.00%     80.00% |           1     20.00%    100.00% |           0      0.00%    100.00%
system.ruby.L1Cache_Controller.MM_W.Fwd_GETX::total            5                      
system.ruby.L1Cache_Controller.MM_W.Fwd_GETS |          39     14.18%     14.18% |         105     38.18%     52.36% |          27      9.82%     62.18% |         104     37.82%    100.00%
system.ruby.L1Cache_Controller.MM_W.Fwd_GETS::total          275                      
system.ruby.L1Cache_Controller.MM_W.Use_Timeout |       26053      0.56%      0.56% |       23587      0.51%      1.07% |     2220081     47.99%     49.06% |     2356673     50.94%    100.00%
system.ruby.L1Cache_Controller.MM_W.Use_Timeout::total      4626394                      
system.ruby.L1Cache_Controller.IM.Ack    |        2438     36.26%     36.26% |        1864     27.72%     63.98% |        1201     17.86%     81.84% |        1221     18.16%    100.00%
system.ruby.L1Cache_Controller.IM.Ack::total         6724                      
system.ruby.L1Cache_Controller.IM.Exclusive_Data |       12250      0.33%      0.33% |       13558      0.37%      0.70% |     1341279     36.37%     37.07% |     2321002     62.93%    100.00%
system.ruby.L1Cache_Controller.IM.Exclusive_Data::total      3688089                      
system.ruby.L1Cache_Controller.SM.Ack    |        2737     52.14%     52.14% |         754     14.36%     66.51% |         813     15.49%     82.00% |         945     18.00%    100.00%
system.ruby.L1Cache_Controller.SM.Ack::total         5249                      
system.ruby.L1Cache_Controller.SM.Exclusive_Data |       12722      1.40%      1.40% |        8246      0.91%      2.31% |      856170     94.37%     96.69% |       30071      3.31%    100.00%
system.ruby.L1Cache_Controller.SM.Exclusive_Data::total       907209                      
system.ruby.L1Cache_Controller.OM.Own_GETX |          21     13.55%     13.55% |          33     21.29%     34.84% |          64     41.29%     76.13% |          37     23.87%    100.00%
system.ruby.L1Cache_Controller.OM.Own_GETX::total          155                      
system.ruby.L1Cache_Controller.OM.Ack    |         554     21.85%     21.85% |         479     18.90%     40.75% |         643     25.36%     66.11% |         859     33.89%    100.00%
system.ruby.L1Cache_Controller.OM.Ack::total         2535                      
system.ruby.L1Cache_Controller.OM.All_acks |       24993      0.54%      0.54% |       21837      0.48%      1.02% |     2197513     47.82%     48.84% |     2351110     51.16%    100.00%
system.ruby.L1Cache_Controller.OM.All_acks::total      4595453                      
system.ruby.L1Cache_Controller.IS.Data   |       57834      0.75%      0.75% |       77153      1.01%      1.76% |     3592214     46.86%     48.62% |     3938993     51.38%    100.00%
system.ruby.L1Cache_Controller.IS.Data::total      7666194                      
system.ruby.L1Cache_Controller.IS.Exclusive_Data |        8003      0.42%      0.42% |       13476      0.70%      1.12% |      804600     41.80%     42.92% |     1098723     57.08%    100.00%
system.ruby.L1Cache_Controller.IS.Exclusive_Data::total      1924802                      
system.ruby.L1Cache_Controller.SI.Load   |           0      0.00%      0.00% |          36     34.62%     34.62% |          58     55.77%     90.38% |          10      9.62%    100.00%
system.ruby.L1Cache_Controller.SI.Load::total          104                      
system.ruby.L1Cache_Controller.SI.Ifetch |           0      0.00%      0.00% |           6    100.00%    100.00% |           0      0.00%    100.00% |           0      0.00%    100.00%
system.ruby.L1Cache_Controller.SI.Ifetch::total            6                      
system.ruby.L1Cache_Controller.SI.Store  |           0      0.00%      0.00% |           0      0.00%      0.00% |           1    100.00%    100.00% |           0      0.00%    100.00%
system.ruby.L1Cache_Controller.SI.Store::total            1                      
system.ruby.L1Cache_Controller.SI.Writeback_Ack |       37419      1.08%      1.08% |       53108      1.54%      2.62% |     1128556     32.62%     35.24% |     2240528     64.76%    100.00%
system.ruby.L1Cache_Controller.SI.Writeback_Ack::total      3459611                      
system.ruby.L1Cache_Controller.SI.Writeback_Ack_Data |        6742      0.20%      0.20% |       14153      0.43%      0.63% |     1605783     48.75%     49.38% |     1667387     50.62%    100.00%
system.ruby.L1Cache_Controller.SI.Writeback_Ack_Data::total      3294065                      
system.ruby.L1Cache_Controller.OI.Writeback_Ack_Data |         242     23.94%     23.94% |         259     25.62%     49.55% |         218     21.56%     71.12% |         292     28.88%    100.00%
system.ruby.L1Cache_Controller.OI.Writeback_Ack_Data::total         1011                      
system.ruby.L1Cache_Controller.MI.Load   |           1      1.18%      1.18% |          20     23.53%     24.71% |          59     69.41%     94.12% |           5      5.88%    100.00%
system.ruby.L1Cache_Controller.MI.Load::total           85                      
system.ruby.L1Cache_Controller.MI.Store  |           0      0.00%      0.00% |           0      0.00%      0.00% |           1     25.00%     25.00% |           3     75.00%    100.00%
system.ruby.L1Cache_Controller.MI.Store::total            4                      
system.ruby.L1Cache_Controller.MI.Writeback_Ack_Data |       27183      0.42%      0.42% |       30020      0.46%      0.88% |     2997643     46.12%     47.00% |     3445477     53.00%    100.00%
system.ruby.L1Cache_Controller.MI.Writeback_Ack_Data::total      6500323                      
system.ruby.L2Cache_Controller.L1_GETS        9591577      0.00%      0.00%
system.ruby.L2Cache_Controller.L1_GETX        4595455      0.00%      0.00%
system.ruby.L2Cache_Controller.L1_PUTO           1011      0.00%      0.00%
system.ruby.L2Cache_Controller.L1_PUTX        6500323      0.00%      0.00%
system.ruby.L2Cache_Controller.L1_PUTS_only      6627457      0.00%      0.00%
system.ruby.L2Cache_Controller.L1_PUTS         126231      0.00%      0.00%
system.ruby.L2Cache_Controller.Fwd_GETX            11      0.00%      0.00%
system.ruby.L2Cache_Controller.Fwd_DMA            690      0.00%      0.00%
system.ruby.L2Cache_Controller.Inv                 12      0.00%      0.00%
system.ruby.L2Cache_Controller.All_Acks       4035437      0.00%      0.00%
system.ruby.L2Cache_Controller.Data           8193899      0.00%      0.00%
system.ruby.L2Cache_Controller.L1_WBCLEANDATA      3294065      0.00%      0.00%
system.ruby.L2Cache_Controller.L1_WBDIRTYDATA      6501334      0.00%      0.00%
system.ruby.L2Cache_Controller.Writeback_Ack      4033534      0.00%      0.00%
system.ruby.L2Cache_Controller.Unblock       11125805      0.00%      0.00%
system.ruby.L2Cache_Controller.Exclusive_Unblock      6520255      0.00%      0.00%
system.ruby.L2Cache_Controller.DmaAck             446      0.00%      0.00%
system.ruby.L2Cache_Controller.L2_Replacement      7262306      0.00%      0.00%
system.ruby.L2Cache_Controller.NP.L1_GETS      4158462      0.00%      0.00%
system.ruby.L2Cache_Controller.NP.L1_GETX      3094043      0.00%      0.00%
system.ruby.L2Cache_Controller.ILS.L1_GETS        11029      0.00%      0.00%
system.ruby.L2Cache_Controller.ILS.L1_GETX       881082      0.00%      0.00%
system.ruby.L2Cache_Controller.ILS.L1_PUTS_only      3279641      0.00%      0.00%
system.ruby.L2Cache_Controller.ILS.L1_PUTS        14424      0.00%      0.00%
system.ruby.L2Cache_Controller.ILX.L1_GETS        16239      0.00%      0.00%
system.ruby.L2Cache_Controller.ILX.L1_GETX         3864      0.00%      0.00%
system.ruby.L2Cache_Controller.ILX.L1_PUTX      6500323      0.00%      0.00%
system.ruby.L2Cache_Controller.ILX.Fwd_DMA          446      0.00%      0.00%
system.ruby.L2Cache_Controller.ILOX.L1_GETS         9330      0.00%      0.00%
system.ruby.L2Cache_Controller.ILOX.L1_GETX          415      0.00%      0.00%
system.ruby.L2Cache_Controller.ILOX.L1_PUTO          613      0.00%      0.00%
system.ruby.L2Cache_Controller.ILOSX.L1_GETS         3806      0.00%      0.00%
system.ruby.L2Cache_Controller.ILOSX.L1_GETX         5303      0.00%      0.00%
system.ruby.L2Cache_Controller.ILOSX.L1_PUTO          398      0.00%      0.00%
system.ruby.L2Cache_Controller.ILOSX.L1_PUTS_only        10336      0.00%      0.00%
system.ruby.L2Cache_Controller.ILOSX.L1_PUTS         2332      0.00%      0.00%
system.ruby.L2Cache_Controller.S.L1_GETS      3363065      0.00%      0.00%
system.ruby.L2Cache_Controller.S.L1_GETX        37212      0.00%      0.00%
system.ruby.L2Cache_Controller.S.Inv               12      0.00%      0.00%
system.ruby.L2Cache_Controller.S.L2_Replacement      3212084      0.00%      0.00%
system.ruby.L2Cache_Controller.OLSX.L1_GETS          731      0.00%      0.00%
system.ruby.L2Cache_Controller.OLSX.L1_GETX          126      0.00%      0.00%
system.ruby.L2Cache_Controller.OLSX.L1_PUTS_only          194      0.00%      0.00%
system.ruby.L2Cache_Controller.OLSX.L1_PUTS          615      0.00%      0.00%
system.ruby.L2Cache_Controller.OLSX.L2_Replacement           85      0.00%      0.00%
system.ruby.L2Cache_Controller.SLS.L1_GETS       113130      0.00%      0.00%
system.ruby.L2Cache_Controller.SLS.L1_GETX        23100      0.00%      0.00%
system.ruby.L2Cache_Controller.SLS.L1_PUTS_only      3337285      0.00%      0.00%
system.ruby.L2Cache_Controller.SLS.L1_PUTS       108849      0.00%      0.00%
system.ruby.L2Cache_Controller.SLS.L2_Replacement        16688      0.00%      0.00%
system.ruby.L2Cache_Controller.M.L1_GETS      1915204      0.00%      0.00%
system.ruby.L2Cache_Controller.M.L1_GETX       550308      0.00%      0.00%
system.ruby.L2Cache_Controller.M.Fwd_GETX           11      0.00%      0.00%
system.ruby.L2Cache_Controller.M.Fwd_DMA          244      0.00%      0.00%
system.ruby.L2Cache_Controller.M.L2_Replacement      4033449      0.00%      0.00%
system.ruby.L2Cache_Controller.ILOXW.L1_WBDIRTYDATA          613      0.00%      0.00%
system.ruby.L2Cache_Controller.ILOXW.Unblock        10336      0.00%      0.00%
system.ruby.L2Cache_Controller.ILOSXW.L1_PUTS            2      0.00%      0.00%
system.ruby.L2Cache_Controller.ILOSXW.L1_WBDIRTYDATA          398      0.00%      0.00%
system.ruby.L2Cache_Controller.ILOSXW.Unblock         2332      0.00%      0.00%
system.ruby.L2Cache_Controller.SLSW.L1_GETS            2      0.00%      0.00%
system.ruby.L2Cache_Controller.SLSW.L1_PUTS            6      0.00%      0.00%
system.ruby.L2Cache_Controller.SLSW.Unblock       108849      0.00%      0.00%
system.ruby.L2Cache_Controller.ILSW.L1_WBCLEANDATA        14424      0.00%      0.00%
system.ruby.L2Cache_Controller.IW.L1_WBCLEANDATA      3279641      0.00%      0.00%
system.ruby.L2Cache_Controller.SW.L1_GETS            1      0.00%      0.00%
system.ruby.L2Cache_Controller.SW.Unblock      3337285      0.00%      0.00%
system.ruby.L2Cache_Controller.OXW.Unblock          194      0.00%      0.00%
system.ruby.L2Cache_Controller.OLSXW.Unblock          615      0.00%      0.00%
system.ruby.L2Cache_Controller.ILXW.L1_WBDIRTYDATA      6500323      0.00%      0.00%
system.ruby.L2Cache_Controller.IFLS.L1_GETS            3      0.00%      0.00%
system.ruby.L2Cache_Controller.IFLS.Unblock        11029      0.00%      0.00%
system.ruby.L2Cache_Controller.IFLOX.Unblock         9330      0.00%      0.00%
system.ruby.L2Cache_Controller.IFLOX.Exclusive_Unblock          126      0.00%      0.00%
system.ruby.L2Cache_Controller.IFLOXX.L1_GETS           72      0.00%      0.00%
system.ruby.L2Cache_Controller.IFLOXX.L1_GETX            2      0.00%      0.00%
system.ruby.L2Cache_Controller.IFLOXX.Unblock         6641      0.00%      0.00%
system.ruby.L2Cache_Controller.IFLOXX.Exclusive_Unblock        13877      0.00%      0.00%
system.ruby.L2Cache_Controller.IFLOSX.Unblock         3806      0.00%      0.00%
system.ruby.L2Cache_Controller.IFLXO.L1_GETS           47      0.00%      0.00%
system.ruby.L2Cache_Controller.IFLXO.Exclusive_Unblock         5303      0.00%      0.00%
system.ruby.L2Cache_Controller.IGS.L1_GETS          449      0.00%      0.00%
system.ruby.L2Cache_Controller.IGS.Data       4158462      0.00%      0.00%
system.ruby.L2Cache_Controller.IGS.Unblock      4158462      0.00%      0.00%
system.ruby.L2Cache_Controller.IGM.Data       3131255      0.00%      0.00%
system.ruby.L2Cache_Controller.IGMLS.Data       904182      0.00%      0.00%
system.ruby.L2Cache_Controller.IGMO.All_Acks      4035437      0.00%      0.00%
system.ruby.L2Cache_Controller.IGMO.Exclusive_Unblock      4035437      0.00%      0.00%
system.ruby.L2Cache_Controller.MM.Exclusive_Unblock       550308      0.00%      0.00%
system.ruby.L2Cache_Controller.SS.L1_GETS            1      0.00%      0.00%
system.ruby.L2Cache_Controller.SS.Unblock      3363065      0.00%      0.00%
system.ruby.L2Cache_Controller.OO.L1_GETS            2      0.00%      0.00%
system.ruby.L2Cache_Controller.OO.Exclusive_Unblock      1915204      0.00%      0.00%
system.ruby.L2Cache_Controller.OLSXS.Unblock          731      0.00%      0.00%
system.ruby.L2Cache_Controller.SLSS.L1_GETS            4      0.00%      0.00%
system.ruby.L2Cache_Controller.SLSS.L1_PUTS_only            1      0.00%      0.00%
system.ruby.L2Cache_Controller.SLSS.L1_PUTS            3      0.00%      0.00%
system.ruby.L2Cache_Controller.SLSS.Unblock       113130      0.00%      0.00%
system.ruby.L2Cache_Controller.MI.Writeback_Ack      4033449      0.00%      0.00%
system.ruby.L2Cache_Controller.OLSI.Writeback_Ack           85      0.00%      0.00%
system.ruby.L2Cache_Controller.ILXD.DmaAck          446      0.00%      0.00%

---------- End Simulation Statistics   ----------
