
---------- Begin Simulation Statistics ----------
sim_seconds                                  2.388839                       # Number of seconds simulated
sim_ticks                                2388838851000                       # Number of ticks simulated
final_tick                               55215080989501                       # Number of ticks from beginning of simulation (restored from checkpoints and never reset)
sim_freq                                 1000000000000                       # Frequency of simulated ticks
host_inst_rate                                 138234                       # Simulator instruction rate (inst/s)
host_op_rate                                   250573                       # Simulator op (including micro ops) rate (op/s)
host_tick_rate                              251511345                       # Simulator tick rate (ticks/s)
host_mem_usage                                1867648                       # Number of bytes of host memory used
host_seconds                                  9497.94                       # Real time elapsed on the host
sim_insts                                  1312934252                       # Number of instructions simulated
sim_ops                                    2379930818                       # Number of ops (including micro ops) simulated
system.voltage_domain.voltage                       1                       # Voltage in Volts
system.clk_domain.clock                          1000                       # Clock period in ticks
system.mem_ctrls.bytes_read::ruby.dir_cntrl0     61169344                       # Number of bytes read from this memory
system.mem_ctrls.bytes_read::total           61169344                       # Number of bytes read from this memory
system.mem_ctrls.bytes_written::ruby.dir_cntrl0     38581888                       # Number of bytes written to this memory
system.mem_ctrls.bytes_written::total        38581888                       # Number of bytes written to this memory
system.mem_ctrls.num_reads::ruby.dir_cntrl0       955771                       # Number of read requests responded to by this memory
system.mem_ctrls.num_reads::total              955771                       # Number of read requests responded to by this memory
system.mem_ctrls.num_writes::ruby.dir_cntrl0       602842                       # Number of write requests responded to by this memory
system.mem_ctrls.num_writes::total             602842                       # Number of write requests responded to by this memory
system.mem_ctrls.bw_read::ruby.dir_cntrl0     25606308                       # Total read bandwidth from this memory (bytes/s)
system.mem_ctrls.bw_read::total              25606308                       # Total read bandwidth from this memory (bytes/s)
system.mem_ctrls.bw_write::ruby.dir_cntrl0     16150896                       # Write bandwidth from this memory (bytes/s)
system.mem_ctrls.bw_write::total             16150896                       # Write bandwidth from this memory (bytes/s)
system.mem_ctrls.bw_total::ruby.dir_cntrl0     41757204                       # Total bandwidth to/from this memory (bytes/s)
system.mem_ctrls.bw_total::total             41757204                       # Total bandwidth to/from this memory (bytes/s)
system.mem_ctrls.readReqs                      955771                       # Number of read requests accepted
system.mem_ctrls.writeReqs                     602842                       # Number of write requests accepted
system.mem_ctrls.readBursts                    955771                       # Number of DRAM read bursts, including those serviced by the write queue
system.mem_ctrls.writeBursts                   602842                       # Number of DRAM write bursts, including those merged in the write queue
system.mem_ctrls.bytesReadDRAM               61135488                       # Total number of bytes read from DRAM
system.mem_ctrls.bytesReadWrQ                   33856                       # Total number of bytes read from write queue
system.mem_ctrls.bytesWritten                38579840                       # Total number of bytes written to DRAM
system.mem_ctrls.bytesReadSys                61169344                       # Total read bytes from the system interface side
system.mem_ctrls.bytesWrittenSys             38581888                       # Total written bytes from the system interface side
system.mem_ctrls.servicedByWrQ                    529                       # Number of DRAM read bursts serviced by the write queue
system.mem_ctrls.mergedWrBursts                    32                       # Number of DRAM write bursts merged with an existing one
system.mem_ctrls.neitherReadNorWriteReqs            0                       # Number of requests that are neither read nor write
system.mem_ctrls.perBankRdBursts::0             59187                       # Per bank write bursts
system.mem_ctrls.perBankRdBursts::1             62491                       # Per bank write bursts
system.mem_ctrls.perBankRdBursts::2             58913                       # Per bank write bursts
system.mem_ctrls.perBankRdBursts::3             57756                       # Per bank write bursts
system.mem_ctrls.perBankRdBursts::4             60056                       # Per bank write bursts
system.mem_ctrls.perBankRdBursts::5             59673                       # Per bank write bursts
system.mem_ctrls.perBankRdBursts::6             60507                       # Per bank write bursts
system.mem_ctrls.perBankRdBursts::7             58434                       # Per bank write bursts
system.mem_ctrls.perBankRdBursts::8             60535                       # Per bank write bursts
system.mem_ctrls.perBankRdBursts::9             59891                       # Per bank write bursts
system.mem_ctrls.perBankRdBursts::10            57255                       # Per bank write bursts
system.mem_ctrls.perBankRdBursts::11            59845                       # Per bank write bursts
system.mem_ctrls.perBankRdBursts::12            60006                       # Per bank write bursts
system.mem_ctrls.perBankRdBursts::13            58904                       # Per bank write bursts
system.mem_ctrls.perBankRdBursts::14            61060                       # Per bank write bursts
system.mem_ctrls.perBankRdBursts::15            60729                       # Per bank write bursts
system.mem_ctrls.perBankWrBursts::0             37481                       # Per bank write bursts
system.mem_ctrls.perBankWrBursts::1             39637                       # Per bank write bursts
system.mem_ctrls.perBankWrBursts::2             37231                       # Per bank write bursts
system.mem_ctrls.perBankWrBursts::3             36874                       # Per bank write bursts
system.mem_ctrls.perBankWrBursts::4             37591                       # Per bank write bursts
system.mem_ctrls.perBankWrBursts::5             37429                       # Per bank write bursts
system.mem_ctrls.perBankWrBursts::6             38109                       # Per bank write bursts
system.mem_ctrls.perBankWrBursts::7             36997                       # Per bank write bursts
system.mem_ctrls.perBankWrBursts::8             38076                       # Per bank write bursts
system.mem_ctrls.perBankWrBursts::9             37853                       # Per bank write bursts
system.mem_ctrls.perBankWrBursts::10            36297                       # Per bank write bursts
system.mem_ctrls.perBankWrBursts::11            37957                       # Per bank write bursts
system.mem_ctrls.perBankWrBursts::12            37753                       # Per bank write bursts
system.mem_ctrls.perBankWrBursts::13            37215                       # Per bank write bursts
system.mem_ctrls.perBankWrBursts::14            38396                       # Per bank write bursts
system.mem_ctrls.perBankWrBursts::15            37914                       # Per bank write bursts
system.mem_ctrls.numRdRetry                         0                       # Number of times read queue was full causing retry
system.mem_ctrls.numWrRetry                         0                       # Number of times write queue was full causing retry
system.mem_ctrls.totGap                  2388838770000                       # Total gap between requests
system.mem_ctrls.readPktSize::0                     0                       # Read request sizes (log2)
system.mem_ctrls.readPktSize::1                     0                       # Read request sizes (log2)
system.mem_ctrls.readPktSize::2                     0                       # Read request sizes (log2)
system.mem_ctrls.readPktSize::3                     0                       # Read request sizes (log2)
system.mem_ctrls.readPktSize::4                     0                       # Read request sizes (log2)
system.mem_ctrls.readPktSize::5                     0                       # Read request sizes (log2)
system.mem_ctrls.readPktSize::6                955771                       # Read request sizes (log2)
system.mem_ctrls.writePktSize::0                    0                       # Write request sizes (log2)
system.mem_ctrls.writePktSize::1                    0                       # Write request sizes (log2)
system.mem_ctrls.writePktSize::2                    0                       # Write request sizes (log2)
system.mem_ctrls.writePktSize::3                    0                       # Write request sizes (log2)
system.mem_ctrls.writePktSize::4                    0                       # Write request sizes (log2)
system.mem_ctrls.writePktSize::5                    0                       # Write request sizes (log2)
system.mem_ctrls.writePktSize::6               602842                       # Write request sizes (log2)
system.mem_ctrls.rdQLenPdf::0                  953123                       # What read queue length does an incoming req see
system.mem_ctrls.rdQLenPdf::1                    2087                       # What read queue length does an incoming req see
system.mem_ctrls.rdQLenPdf::2                      28                       # What read queue length does an incoming req see
system.mem_ctrls.rdQLenPdf::3                       4                       # What read queue length does an incoming req see
system.mem_ctrls.rdQLenPdf::4                       0                       # What read queue length does an incoming req see
system.mem_ctrls.rdQLenPdf::5                       0                       # What read queue length does an incoming req see
system.mem_ctrls.rdQLenPdf::6                       0                       # What read queue length does an incoming req see
system.mem_ctrls.rdQLenPdf::7                       0                       # What read queue length does an incoming req see
system.mem_ctrls.rdQLenPdf::8                       0                       # What read queue length does an incoming req see
system.mem_ctrls.rdQLenPdf::9                       0                       # What read queue length does an incoming req see
system.mem_ctrls.rdQLenPdf::10                      0                       # What read queue length does an incoming req see
system.mem_ctrls.rdQLenPdf::11                      0                       # What read queue length does an incoming req see
system.mem_ctrls.rdQLenPdf::12                      0                       # What read queue length does an incoming req see
system.mem_ctrls.rdQLenPdf::13                      0                       # What read queue length does an incoming req see
system.mem_ctrls.rdQLenPdf::14                      0                       # What read queue length does an incoming req see
system.mem_ctrls.rdQLenPdf::15                      0                       # What read queue length does an incoming req see
system.mem_ctrls.rdQLenPdf::16                      0                       # What read queue length does an incoming req see
system.mem_ctrls.rdQLenPdf::17                      0                       # What read queue length does an incoming req see
system.mem_ctrls.rdQLenPdf::18                      0                       # What read queue length does an incoming req see
system.mem_ctrls.rdQLenPdf::19                      0                       # What read queue length does an incoming req see
system.mem_ctrls.rdQLenPdf::20                      0                       # What read queue length does an incoming req see
system.mem_ctrls.rdQLenPdf::21                      0                       # What read queue length does an incoming req see
system.mem_ctrls.rdQLenPdf::22                      0                       # What read queue length does an incoming req see
system.mem_ctrls.rdQLenPdf::23                      0                       # What read queue length does an incoming req see
system.mem_ctrls.rdQLenPdf::24                      0                       # What read queue length does an incoming req see
system.mem_ctrls.rdQLenPdf::25                      0                       # What read queue length does an incoming req see
system.mem_ctrls.rdQLenPdf::26                      0                       # What read queue length does an incoming req see
system.mem_ctrls.rdQLenPdf::27                      0                       # What read queue length does an incoming req see
system.mem_ctrls.rdQLenPdf::28                      0                       # What read queue length does an incoming req see
system.mem_ctrls.rdQLenPdf::29                      0                       # What read queue length does an incoming req see
system.mem_ctrls.rdQLenPdf::30                      0                       # What read queue length does an incoming req see
system.mem_ctrls.rdQLenPdf::31                      0                       # What read queue length does an incoming req see
system.mem_ctrls.wrQLenPdf::0                       0                       # What write queue length does an incoming req see
system.mem_ctrls.wrQLenPdf::1                       0                       # What write queue length does an incoming req see
system.mem_ctrls.wrQLenPdf::2                       0                       # What write queue length does an incoming req see
system.mem_ctrls.wrQLenPdf::3                       0                       # What write queue length does an incoming req see
system.mem_ctrls.wrQLenPdf::4                       0                       # What write queue length does an incoming req see
system.mem_ctrls.wrQLenPdf::5                       0                       # What write queue length does an incoming req see
system.mem_ctrls.wrQLenPdf::6                       0                       # What write queue length does an incoming req see
system.mem_ctrls.wrQLenPdf::7                       0                       # What write queue length does an incoming req see
system.mem_ctrls.wrQLenPdf::8                       0                       # What write queue length does an incoming req see
system.mem_ctrls.wrQLenPdf::9                       0                       # What write queue length does an incoming req see
system.mem_ctrls.wrQLenPdf::10                      0                       # What write queue length does an incoming req see
system.mem_ctrls.wrQLenPdf::11                      0                       # What write queue length does an incoming req see
system.mem_ctrls.wrQLenPdf::12                      0                       # What write queue length does an incoming req see
system.mem_ctrls.wrQLenPdf::13                      0                       # What write queue length does an incoming req see
system.mem_ctrls.wrQLenPdf::14                      0                       # What write queue length does an incoming req see
system.mem_ctrls.wrQLenPdf::15                    633                       # What write queue length does an incoming req see
system.mem_ctrls.wrQLenPdf::16                    715                       # What write queue length does an incoming req see
system.mem_ctrls.wrQLenPdf::17                  37295                       # What write queue length does an incoming req see
system.mem_ctrls.wrQLenPdf::18                  37626                       # What write queue length does an incoming req see
system.mem_ctrls.wrQLenPdf::19                  37620                       # What write queue length does an incoming req see
system.mem_ctrls.wrQLenPdf::20                  37630                       # What write queue length does an incoming req see
system.mem_ctrls.wrQLenPdf::21                  37621                       # What write queue length does an incoming req see
system.mem_ctrls.wrQLenPdf::22                  37619                       # What write queue length does an incoming req see
system.mem_ctrls.wrQLenPdf::23                  37625                       # What write queue length does an incoming req see
system.mem_ctrls.wrQLenPdf::24                  37632                       # What write queue length does an incoming req see
system.mem_ctrls.wrQLenPdf::25                  37600                       # What write queue length does an incoming req see
system.mem_ctrls.wrQLenPdf::26                  37609                       # What write queue length does an incoming req see
system.mem_ctrls.wrQLenPdf::27                  37615                       # What write queue length does an incoming req see
system.mem_ctrls.wrQLenPdf::28                  37599                       # What write queue length does an incoming req see
system.mem_ctrls.wrQLenPdf::29                  37596                       # What write queue length does an incoming req see
system.mem_ctrls.wrQLenPdf::30                  37592                       # What write queue length does an incoming req see
system.mem_ctrls.wrQLenPdf::31                  37593                       # What write queue length does an incoming req see
system.mem_ctrls.wrQLenPdf::32                  37587                       # What write queue length does an incoming req see
system.mem_ctrls.wrQLenPdf::33                      3                       # What write queue length does an incoming req see
system.mem_ctrls.wrQLenPdf::34                      0                       # What write queue length does an incoming req see
system.mem_ctrls.wrQLenPdf::35                      0                       # What write queue length does an incoming req see
system.mem_ctrls.wrQLenPdf::36                      0                       # What write queue length does an incoming req see
system.mem_ctrls.wrQLenPdf::37                      0                       # What write queue length does an incoming req see
system.mem_ctrls.wrQLenPdf::38                      0                       # What write queue length does an incoming req see
system.mem_ctrls.wrQLenPdf::39                      0                       # What write queue length does an incoming req see
system.mem_ctrls.wrQLenPdf::40                      0                       # What write queue length does an incoming req see
system.mem_ctrls.wrQLenPdf::41                      0                       # What write queue length does an incoming req see
system.mem_ctrls.wrQLenPdf::42                      0                       # What write queue length does an incoming req see
system.mem_ctrls.wrQLenPdf::43                      0                       # What write queue length does an incoming req see
system.mem_ctrls.wrQLenPdf::44                      0                       # What write queue length does an incoming req see
system.mem_ctrls.wrQLenPdf::45                      0                       # What write queue length does an incoming req see
system.mem_ctrls.wrQLenPdf::46                      0                       # What write queue length does an incoming req see
system.mem_ctrls.wrQLenPdf::47                      0                       # What write queue length does an incoming req see
system.mem_ctrls.wrQLenPdf::48                      0                       # What write queue length does an incoming req see
system.mem_ctrls.wrQLenPdf::49                      0                       # What write queue length does an incoming req see
system.mem_ctrls.wrQLenPdf::50                      0                       # What write queue length does an incoming req see
system.mem_ctrls.wrQLenPdf::51                      0                       # What write queue length does an incoming req see
system.mem_ctrls.wrQLenPdf::52                      0                       # What write queue length does an incoming req see
system.mem_ctrls.wrQLenPdf::53                      0                       # What write queue length does an incoming req see
system.mem_ctrls.wrQLenPdf::54                      0                       # What write queue length does an incoming req see
system.mem_ctrls.wrQLenPdf::55                      0                       # What write queue length does an incoming req see
system.mem_ctrls.wrQLenPdf::56                      0                       # What write queue length does an incoming req see
system.mem_ctrls.wrQLenPdf::57                      0                       # What write queue length does an incoming req see
system.mem_ctrls.wrQLenPdf::58                      0                       # What write queue length does an incoming req see
system.mem_ctrls.wrQLenPdf::59                      0                       # What write queue length does an incoming req see
system.mem_ctrls.wrQLenPdf::60                      0                       # What write queue length does an incoming req see
system.mem_ctrls.wrQLenPdf::61                      0                       # What write queue length does an incoming req see
system.mem_ctrls.wrQLenPdf::62                      0                       # What write queue length does an incoming req see
system.mem_ctrls.wrQLenPdf::63                      0                       # What write queue length does an incoming req see
system.mem_ctrls.bytesPerActivate::samples       606619                       # Bytes accessed per row activation
system.mem_ctrls.bytesPerActivate::mean    164.379052                       # Bytes accessed per row activation
system.mem_ctrls.bytesPerActivate::gmean   117.648715                       # Bytes accessed per row activation
system.mem_ctrls.bytesPerActivate::stdev   179.123337                       # Bytes accessed per row activation
system.mem_ctrls.bytesPerActivate::0-127       306182     50.47%     50.47% # Bytes accessed per row activation
system.mem_ctrls.bytesPerActivate::128-255       170909     28.17%     78.65% # Bytes accessed per row activation
system.mem_ctrls.bytesPerActivate::256-383        84971     14.01%     92.65% # Bytes accessed per row activation
system.mem_ctrls.bytesPerActivate::384-511        12942      2.13%     94.79% # Bytes accessed per row activation
system.mem_ctrls.bytesPerActivate::512-639         7710      1.27%     96.06% # Bytes accessed per row activation
system.mem_ctrls.bytesPerActivate::640-767         5526      0.91%     96.97% # Bytes accessed per row activation
system.mem_ctrls.bytesPerActivate::768-895         4340      0.72%     97.69% # Bytes accessed per row activation
system.mem_ctrls.bytesPerActivate::896-1023         3389      0.56%     98.24% # Bytes accessed per row activation
system.mem_ctrls.bytesPerActivate::1024-1151        10650      1.76%    100.00% # Bytes accessed per row activation
system.mem_ctrls.bytesPerActivate::total       606619                       # Bytes accessed per row activation
system.mem_ctrls.rdPerTurnAround::samples        37587                       # Reads before turning the bus around for writes
system.mem_ctrls.rdPerTurnAround::mean      26.403304                       # Reads before turning the bus around for writes
system.mem_ctrls.rdPerTurnAround::stdev    203.817104                       # Reads before turning the bus around for writes
system.mem_ctrls.rdPerTurnAround::0-2047        37582     99.99%     99.99% # Reads before turning the bus around for writes
system.mem_ctrls.rdPerTurnAround::2048-4095            2      0.01%     99.99% # Reads before turning the bus around for writes
system.mem_ctrls.rdPerTurnAround::4096-6143            1      0.00%     99.99% # Reads before turning the bus around for writes
system.mem_ctrls.rdPerTurnAround::8192-10239            1      0.00%    100.00% # Reads before turning the bus around for writes
system.mem_ctrls.rdPerTurnAround::36864-38911            1      0.00%    100.00% # Reads before turning the bus around for writes
system.mem_ctrls.rdPerTurnAround::total         37587                       # Reads before turning the bus around for writes
system.mem_ctrls.wrPerTurnAround::samples        37587                       # Writes before turning the bus around for reads
system.mem_ctrls.wrPerTurnAround::mean      16.037726                       # Writes before turning the bus around for reads
system.mem_ctrls.wrPerTurnAround::gmean     16.035448                       # Writes before turning the bus around for reads
system.mem_ctrls.wrPerTurnAround::stdev      0.283670                       # Writes before turning the bus around for reads
system.mem_ctrls.wrPerTurnAround::16            36877     98.11%     98.11% # Writes before turning the bus around for reads
system.mem_ctrls.wrPerTurnAround::17               47      0.13%     98.24% # Writes before turning the bus around for reads
system.mem_ctrls.wrPerTurnAround::18              647      1.72%     99.96% # Writes before turning the bus around for reads
system.mem_ctrls.wrPerTurnAround::19                8      0.02%     99.98% # Writes before turning the bus around for reads
system.mem_ctrls.wrPerTurnAround::21                3      0.01%     99.99% # Writes before turning the bus around for reads
system.mem_ctrls.wrPerTurnAround::22                1      0.00%     99.99% # Writes before turning the bus around for reads
system.mem_ctrls.wrPerTurnAround::23                2      0.01%     99.99% # Writes before turning the bus around for reads
system.mem_ctrls.wrPerTurnAround::25                2      0.01%    100.00% # Writes before turning the bus around for reads
system.mem_ctrls.wrPerTurnAround::total         37587                       # Writes before turning the bus around for reads
system.mem_ctrls.totQLat                  13393480694                       # Total ticks spent queuing
system.mem_ctrls.totMemAccLat             31304268194                       # Total ticks spent from burst creation until serviced by the DRAM
system.mem_ctrls.totBusLat                 4776210000                       # Total ticks spent in databus transfers
system.mem_ctrls.avgQLat                     14021.03                       # Average queueing delay per DRAM burst
system.mem_ctrls.avgBusLat                    5000.00                       # Average bus latency per DRAM burst
system.mem_ctrls.avgMemAccLat                32771.03                       # Average memory access latency per DRAM burst
system.mem_ctrls.avgRdBW                        25.59                       # Average DRAM read bandwidth in MiByte/s
system.mem_ctrls.avgWrBW                        16.15                       # Average achieved write bandwidth in MiByte/s
system.mem_ctrls.avgRdBWSys                     25.61                       # Average system read bandwidth in MiByte/s
system.mem_ctrls.avgWrBWSys                     16.15                       # Average system write bandwidth in MiByte/s
system.mem_ctrls.peakBW                      12800.00                       # Theoretical peak bandwidth in MiByte/s
system.mem_ctrls.busUtil                         0.33                       # Data bus utilization in percentage
system.mem_ctrls.busUtilRead                     0.20                       # Data bus utilization in percentage for reads
system.mem_ctrls.busUtilWrite                    0.13                       # Data bus utilization in percentage for writes
system.mem_ctrls.avgRdQLen                       1.00                       # Average read queue length when enqueuing
system.mem_ctrls.avgWrQLen                      25.49                       # Average write queue length when enqueuing
system.mem_ctrls.readRowHits                   690963                       # Number of row buffer hits during reads
system.mem_ctrls.writeRowHits                  260470                       # Number of row buffer hits during writes
system.mem_ctrls.readRowHitRate                 72.33                       # Row buffer hit rate for reads
system.mem_ctrls.writeRowHitRate                43.21                       # Row buffer hit rate for writes
system.mem_ctrls.avgGap                    1532669.60                       # Average gap between requests
system.mem_ctrls.pageHitRate                    61.07                       # Row buffer hit rate, read and write combined
system.mem_ctrls_0.actEnergy               2303055720                       # Energy for activate commands per rank (pJ)
system.mem_ctrls_0.preEnergy               1256627625                       # Energy for precharge commands per rank (pJ)
system.mem_ctrls_0.readEnergy              3864681600                       # Energy for read commands per rank (pJ)
system.mem_ctrls_0.writeEnergy             1952741520                       # Energy for write commands per rank (pJ)
system.mem_ctrls_0.refreshEnergy         156799219200                       # Energy for refresh commands per rank (pJ)
system.mem_ctrls_0.actBackEnergy         264911597730                       # Energy for active background per rank (pJ)
system.mem_ctrls_0.preBackEnergy         1208015521500                       # Energy for precharge background per rank (pJ)
system.mem_ctrls_0.totalEnergy           1639103444895                       # Total energy per rank (pJ)
system.mem_ctrls_0.averagePower            682.772899                       # Core power per rank (mW)
system.mem_ctrls_0.memoryStateTime::IDLE 2001304066251                       # Time in different power states
system.mem_ctrls_0.memoryStateTime::REF   79768520000                       # Time in different power states
system.mem_ctrls_0.memoryStateTime::PRE_PDN            0                       # Time in different power states
system.mem_ctrls_0.memoryStateTime::ACT  307766352999                       # Time in different power states
system.mem_ctrls_0.memoryStateTime::ACT_PDN            0                       # Time in different power states
system.mem_ctrls_1.actEnergy               2332766520                       # Energy for activate commands per rank (pJ)
system.mem_ctrls_1.preEnergy               1272838875                       # Energy for precharge commands per rank (pJ)
system.mem_ctrls_1.readEnergy              3876256800                       # Energy for read commands per rank (pJ)
system.mem_ctrls_1.writeEnergy             1953467280                       # Energy for write commands per rank (pJ)
system.mem_ctrls_1.refreshEnergy         156799219200                       # Energy for refresh commands per rank (pJ)
system.mem_ctrls_1.actBackEnergy         264266099235                       # Energy for active background per rank (pJ)
system.mem_ctrls_1.preBackEnergy         1208581748250                       # Energy for precharge background per rank (pJ)
system.mem_ctrls_1.totalEnergy           1639082396160                       # Total energy per rank (pJ)
system.mem_ctrls_1.averagePower            682.764132                       # Core power per rank (mW)
system.mem_ctrls_1.memoryStateTime::IDLE 2003923293251                       # Time in different power states
system.mem_ctrls_1.memoryStateTime::REF   79768520000                       # Time in different power states
system.mem_ctrls_1.memoryStateTime::PRE_PDN            0                       # Time in different power states
system.mem_ctrls_1.memoryStateTime::ACT  305145272999                       # Time in different power states
system.mem_ctrls_1.memoryStateTime::ACT_PDN            0                       # Time in different power states
system.cpu_voltage_domain.voltage                   1                       # Voltage in Volts
system.cpu_clk_domain.clock                       500                       # Clock period in ticks
system.cpu0.apic_clk_domain.clock                8000                       # Clock period in ticks
system.cpu0.numCycles                      4775079143                       # number of cpu cycles simulated
system.cpu0.numWorkItemsStarted                     0                       # number of work items this cpu started
system.cpu0.numWorkItemsCompleted                   0                       # number of work items this cpu completed
system.cpu0.kern.inst.arm                           0                       # number of arm instructions executed
system.cpu0.kern.inst.quiesce                       0                       # number of quiesce instructions executed
system.cpu0.committedInsts                 1297401712                       # Number of instructions committed
system.cpu0.committedOps                   2348629897                       # Number of ops (including micro ops) committed
system.cpu0.num_int_alu_accesses           1506660115                       # Number of integer alu accesses
system.cpu0.num_fp_alu_accesses            1130300403                       # Number of float alu accesses
system.cpu0.num_func_calls                     803006                       # number of times a function call or return occured
system.cpu0.num_conditional_control_insts    160857772                       # number of instructions that are conditional controls
system.cpu0.num_int_insts                  1506660115                       # number of integer instructions
system.cpu0.num_fp_insts                   1130300403                       # number of float instructions
system.cpu0.num_int_register_reads         2940022802                       # number of times the integer registers were read
system.cpu0.num_int_register_writes        1033743262                       # number of times the integer registers were written
system.cpu0.num_fp_register_reads          1382500491                       # number of times the floating registers were read
system.cpu0.num_fp_register_writes         1075410492                       # number of times the floating registers were written
system.cpu0.num_cc_register_reads           938947344                       # number of times the CC registers were read
system.cpu0.num_cc_register_writes          528034278                       # number of times the CC registers were written
system.cpu0.num_mem_refs                    388311911                       # number of memory refs
system.cpu0.num_load_insts                  349932022                       # Number of load instructions
system.cpu0.num_store_insts                  38379889                       # Number of store instructions
system.cpu0.num_idle_cycles              24281921.978723                       # Number of idle cycles
system.cpu0.num_busy_cycles              4750797221.021277                       # Number of busy cycles
system.cpu0.not_idle_fraction                0.994915                       # Percentage of non-idle cycles
system.cpu0.idle_fraction                    0.005085                       # Percentage of idle cycles
system.cpu0.Branches                        166250794                       # Number of branches fetched
system.cpu0.op_class::No_OpClass              3901233      0.17%      0.17% # Class of executed instruction
system.cpu0.op_class::IntAlu               1228722256     52.32%     52.48% # Class of executed instruction
system.cpu0.op_class::IntMult                 4265779      0.18%     52.66% # Class of executed instruction
system.cpu0.op_class::IntDiv                      699      0.00%     52.66% # Class of executed instruction
system.cpu0.op_class::FloatAdd              723444344     30.80%     83.47% # Class of executed instruction
system.cpu0.op_class::FloatCmp                      0      0.00%     83.47% # Class of executed instruction
system.cpu0.op_class::FloatCvt                      0      0.00%     83.47% # Class of executed instruction
system.cpu0.op_class::FloatMult                     0      0.00%     83.47% # Class of executed instruction
system.cpu0.op_class::FloatDiv                      0      0.00%     83.47% # Class of executed instruction
system.cpu0.op_class::FloatSqrt                     0      0.00%     83.47% # Class of executed instruction
system.cpu0.op_class::SimdAdd                       0      0.00%     83.47% # Class of executed instruction
system.cpu0.op_class::SimdAddAcc                    0      0.00%     83.47% # Class of executed instruction
system.cpu0.op_class::SimdAlu                       0      0.00%     83.47% # Class of executed instruction
system.cpu0.op_class::SimdCmp                       0      0.00%     83.47% # Class of executed instruction
system.cpu0.op_class::SimdCvt                       0      0.00%     83.47% # Class of executed instruction
system.cpu0.op_class::SimdMisc                      0      0.00%     83.47% # Class of executed instruction
system.cpu0.op_class::SimdMult                      0      0.00%     83.47% # Class of executed instruction
system.cpu0.op_class::SimdMultAcc                   0      0.00%     83.47% # Class of executed instruction
system.cpu0.op_class::SimdShift                     0      0.00%     83.47% # Class of executed instruction
system.cpu0.op_class::SimdShiftAcc                  0      0.00%     83.47% # Class of executed instruction
system.cpu0.op_class::SimdSqrt                      0      0.00%     83.47% # Class of executed instruction
system.cpu0.op_class::SimdFloatAdd                  0      0.00%     83.47% # Class of executed instruction
system.cpu0.op_class::SimdFloatAlu                  0      0.00%     83.47% # Class of executed instruction
system.cpu0.op_class::SimdFloatCmp                  0      0.00%     83.47% # Class of executed instruction
system.cpu0.op_class::SimdFloatCvt                  0      0.00%     83.47% # Class of executed instruction
system.cpu0.op_class::SimdFloatDiv                  0      0.00%     83.47% # Class of executed instruction
system.cpu0.op_class::SimdFloatMisc                 0      0.00%     83.47% # Class of executed instruction
system.cpu0.op_class::SimdFloatMult                 0      0.00%     83.47% # Class of executed instruction
system.cpu0.op_class::SimdFloatMultAcc              0      0.00%     83.47% # Class of executed instruction
system.cpu0.op_class::SimdFloatSqrt                 0      0.00%     83.47% # Class of executed instruction
system.cpu0.op_class::MemRead               349932022     14.90%     98.37% # Class of executed instruction
system.cpu0.op_class::MemWrite               38379889      1.63%    100.00% # Class of executed instruction
system.cpu0.op_class::IprAccess                     0      0.00%    100.00% # Class of executed instruction
system.cpu0.op_class::InstPrefetch                  0      0.00%    100.00% # Class of executed instruction
system.cpu0.op_class::total                2348646222                       # Class of executed instruction
system.cpu1.apic_clk_domain.clock                8000                       # Clock period in ticks
system.cpu1.numCycles                      4775447883                       # number of cpu cycles simulated
system.cpu1.numWorkItemsStarted                     0                       # number of work items this cpu started
system.cpu1.numWorkItemsCompleted                   0                       # number of work items this cpu completed
system.cpu1.kern.inst.arm                           0                       # number of arm instructions executed
system.cpu1.kern.inst.quiesce                       0                       # number of quiesce instructions executed
system.cpu1.committedInsts                    5166535                       # Number of instructions committed
system.cpu1.committedOps                     10364738                       # Number of ops (including micro ops) committed
system.cpu1.num_int_alu_accesses             10181437                       # Number of integer alu accesses
system.cpu1.num_fp_alu_accesses                  1893                       # Number of float alu accesses
system.cpu1.num_func_calls                     263873                       # number of times a function call or return occured
system.cpu1.num_conditional_control_insts       901139                       # number of instructions that are conditional controls
system.cpu1.num_int_insts                    10181437                       # number of integer instructions
system.cpu1.num_fp_insts                         1893                       # number of float instructions
system.cpu1.num_int_register_reads           20083598                       # number of times the integer registers were read
system.cpu1.num_int_register_writes           8284108                       # number of times the integer registers were written
system.cpu1.num_fp_register_reads                3183                       # number of times the floating registers were read
system.cpu1.num_fp_register_writes               1511                       # number of times the floating registers were written
system.cpu1.num_cc_register_reads             6674329                       # number of times the CC registers were read
system.cpu1.num_cc_register_writes            3548999                       # number of times the CC registers were written
system.cpu1.num_mem_refs                      2274559                       # number of memory refs
system.cpu1.num_load_insts                    1478006                       # Number of load instructions
system.cpu1.num_store_insts                    796553                       # Number of store instructions
system.cpu1.num_idle_cycles              4750903786.491262                       # Number of idle cycles
system.cpu1.num_busy_cycles              24544096.508737                       # Number of busy cycles
system.cpu1.not_idle_fraction                0.005140                       # Percentage of non-idle cycles
system.cpu1.idle_fraction                    0.994860                       # Percentage of idle cycles
system.cpu1.Branches                          1216463                       # Number of branches fetched
system.cpu1.op_class::No_OpClass                75215      0.73%      0.73% # Class of executed instruction
system.cpu1.op_class::IntAlu                  7979507     76.99%     77.71% # Class of executed instruction
system.cpu1.op_class::IntMult                   11753      0.11%     77.83% # Class of executed instruction
system.cpu1.op_class::IntDiv                    22361      0.22%     78.04% # Class of executed instruction
system.cpu1.op_class::FloatAdd                   1434      0.01%     78.06% # Class of executed instruction
system.cpu1.op_class::FloatCmp                      0      0.00%     78.06% # Class of executed instruction
system.cpu1.op_class::FloatCvt                      0      0.00%     78.06% # Class of executed instruction
system.cpu1.op_class::FloatMult                     0      0.00%     78.06% # Class of executed instruction
system.cpu1.op_class::FloatDiv                      0      0.00%     78.06% # Class of executed instruction
system.cpu1.op_class::FloatSqrt                     0      0.00%     78.06% # Class of executed instruction
system.cpu1.op_class::SimdAdd                       0      0.00%     78.06% # Class of executed instruction
system.cpu1.op_class::SimdAddAcc                    0      0.00%     78.06% # Class of executed instruction
system.cpu1.op_class::SimdAlu                       0      0.00%     78.06% # Class of executed instruction
system.cpu1.op_class::SimdCmp                       0      0.00%     78.06% # Class of executed instruction
system.cpu1.op_class::SimdCvt                       0      0.00%     78.06% # Class of executed instruction
system.cpu1.op_class::SimdMisc                      0      0.00%     78.06% # Class of executed instruction
system.cpu1.op_class::SimdMult                      0      0.00%     78.06% # Class of executed instruction
system.cpu1.op_class::SimdMultAcc                   0      0.00%     78.06% # Class of executed instruction
system.cpu1.op_class::SimdShift                     0      0.00%     78.06% # Class of executed instruction
system.cpu1.op_class::SimdShiftAcc                  0      0.00%     78.06% # Class of executed instruction
system.cpu1.op_class::SimdSqrt                      0      0.00%     78.06% # Class of executed instruction
system.cpu1.op_class::SimdFloatAdd                  0      0.00%     78.06% # Class of executed instruction
system.cpu1.op_class::SimdFloatAlu                  0      0.00%     78.06% # Class of executed instruction
system.cpu1.op_class::SimdFloatCmp                  0      0.00%     78.06% # Class of executed instruction
system.cpu1.op_class::SimdFloatCvt                  0      0.00%     78.06% # Class of executed instruction
system.cpu1.op_class::SimdFloatDiv                  0      0.00%     78.06% # Class of executed instruction
system.cpu1.op_class::SimdFloatMisc                 0      0.00%     78.06% # Class of executed instruction
system.cpu1.op_class::SimdFloatMult                 0      0.00%     78.06% # Class of executed instruction
system.cpu1.op_class::SimdFloatMultAcc              0      0.00%     78.06% # Class of executed instruction
system.cpu1.op_class::SimdFloatSqrt                 0      0.00%     78.06% # Class of executed instruction
system.cpu1.op_class::MemRead                 1478006     14.26%     92.31% # Class of executed instruction
system.cpu1.op_class::MemWrite                 796553      7.69%    100.00% # Class of executed instruction
system.cpu1.op_class::IprAccess                     0      0.00%    100.00% # Class of executed instruction
system.cpu1.op_class::InstPrefetch                  0      0.00%    100.00% # Class of executed instruction
system.cpu1.op_class::total                  10364829                       # Class of executed instruction
system.cpu2.apic_clk_domain.clock                8000                       # Clock period in ticks
system.cpu2.numCycles                      4778529001                       # number of cpu cycles simulated
system.cpu2.numWorkItemsStarted                     0                       # number of work items this cpu started
system.cpu2.numWorkItemsCompleted                   0                       # number of work items this cpu completed
system.cpu2.kern.inst.arm                           0                       # number of arm instructions executed
system.cpu2.kern.inst.quiesce                       0                       # number of quiesce instructions executed
system.cpu2.committedInsts                    1942463                       # Number of instructions committed
system.cpu2.committedOps                      4156507                       # Number of ops (including micro ops) committed
system.cpu2.num_int_alu_accesses              4069296                       # Number of integer alu accesses
system.cpu2.num_fp_alu_accesses                    39                       # Number of float alu accesses
system.cpu2.num_func_calls                     109816                       # number of times a function call or return occured
system.cpu2.num_conditional_control_insts       322408                       # number of instructions that are conditional controls
system.cpu2.num_int_insts                     4069296                       # number of integer instructions
system.cpu2.num_fp_insts                           39                       # number of float instructions
system.cpu2.num_int_register_reads            8142171                       # number of times the integer registers were read
system.cpu2.num_int_register_writes           3362712                       # number of times the integer registers were written
system.cpu2.num_fp_register_reads                  63                       # number of times the floating registers were read
system.cpu2.num_fp_register_writes                 31                       # number of times the floating registers were written
system.cpu2.num_cc_register_reads             2495729                       # number of times the CC registers were read
system.cpu2.num_cc_register_writes            1272595                       # number of times the CC registers were written
system.cpu2.num_mem_refs                       943385                       # number of memory refs
system.cpu2.num_load_insts                     586848                       # Number of load instructions
system.cpu2.num_store_insts                    356537                       # Number of store instructions
system.cpu2.num_idle_cycles              4768959651.232216                       # Number of idle cycles
system.cpu2.num_busy_cycles              9569349.767785                       # Number of busy cycles
system.cpu2.not_idle_fraction                0.002003                       # Percentage of non-idle cycles
system.cpu2.idle_fraction                    0.997997                       # Percentage of idle cycles
system.cpu2.Branches                           467774                       # Number of branches fetched
system.cpu2.op_class::No_OpClass                72637      1.75%      1.75% # Class of executed instruction
system.cpu2.op_class::IntAlu                  3107251     74.76%     76.50% # Class of executed instruction
system.cpu2.op_class::IntMult                    7558      0.18%     76.69% # Class of executed instruction
system.cpu2.op_class::IntDiv                    25668      0.62%     77.30% # Class of executed instruction
system.cpu2.op_class::FloatAdd                     30      0.00%     77.30% # Class of executed instruction
system.cpu2.op_class::FloatCmp                      0      0.00%     77.30% # Class of executed instruction
system.cpu2.op_class::FloatCvt                      0      0.00%     77.30% # Class of executed instruction
system.cpu2.op_class::FloatMult                     0      0.00%     77.30% # Class of executed instruction
system.cpu2.op_class::FloatDiv                      0      0.00%     77.30% # Class of executed instruction
system.cpu2.op_class::FloatSqrt                     0      0.00%     77.30% # Class of executed instruction
system.cpu2.op_class::SimdAdd                       0      0.00%     77.30% # Class of executed instruction
system.cpu2.op_class::SimdAddAcc                    0      0.00%     77.30% # Class of executed instruction
system.cpu2.op_class::SimdAlu                       0      0.00%     77.30% # Class of executed instruction
system.cpu2.op_class::SimdCmp                       0      0.00%     77.30% # Class of executed instruction
system.cpu2.op_class::SimdCvt                       0      0.00%     77.30% # Class of executed instruction
system.cpu2.op_class::SimdMisc                      0      0.00%     77.30% # Class of executed instruction
system.cpu2.op_class::SimdMult                      0      0.00%     77.30% # Class of executed instruction
system.cpu2.op_class::SimdMultAcc                   0      0.00%     77.30% # Class of executed instruction
system.cpu2.op_class::SimdShift                     0      0.00%     77.30% # Class of executed instruction
system.cpu2.op_class::SimdShiftAcc                  0      0.00%     77.30% # Class of executed instruction
system.cpu2.op_class::SimdSqrt                      0      0.00%     77.30% # Class of executed instruction
system.cpu2.op_class::SimdFloatAdd                  0      0.00%     77.30% # Class of executed instruction
system.cpu2.op_class::SimdFloatAlu                  0      0.00%     77.30% # Class of executed instruction
system.cpu2.op_class::SimdFloatCmp                  0      0.00%     77.30% # Class of executed instruction
system.cpu2.op_class::SimdFloatCvt                  0      0.00%     77.30% # Class of executed instruction
system.cpu2.op_class::SimdFloatDiv                  0      0.00%     77.30% # Class of executed instruction
system.cpu2.op_class::SimdFloatMisc                 0      0.00%     77.30% # Class of executed instruction
system.cpu2.op_class::SimdFloatMult                 0      0.00%     77.30% # Class of executed instruction
system.cpu2.op_class::SimdFloatMultAcc              0      0.00%     77.30% # Class of executed instruction
system.cpu2.op_class::SimdFloatSqrt                 0      0.00%     77.30% # Class of executed instruction
system.cpu2.op_class::MemRead                  586848     14.12%     91.42% # Class of executed instruction
system.cpu2.op_class::MemWrite                 356537      8.58%    100.00% # Class of executed instruction
system.cpu2.op_class::IprAccess                     0      0.00%    100.00% # Class of executed instruction
system.cpu2.op_class::InstPrefetch                  0      0.00%    100.00% # Class of executed instruction
system.cpu2.op_class::total                   4156529                       # Class of executed instruction
system.cpu3.apic_clk_domain.clock                8000                       # Clock period in ticks
system.cpu3.numCycles                      4778405816                       # number of cpu cycles simulated
system.cpu3.numWorkItemsStarted                     0                       # number of work items this cpu started
system.cpu3.numWorkItemsCompleted                   0                       # number of work items this cpu completed
system.cpu3.kern.inst.arm                           0                       # number of arm instructions executed
system.cpu3.kern.inst.quiesce                       0                       # number of quiesce instructions executed
system.cpu3.committedInsts                    3673462                       # Number of instructions committed
system.cpu3.committedOps                      7552485                       # Number of ops (including micro ops) committed
system.cpu3.num_int_alu_accesses              7338584                       # Number of integer alu accesses
system.cpu3.num_fp_alu_accesses                   372                       # Number of float alu accesses
system.cpu3.num_func_calls                     166406                       # number of times a function call or return occured
system.cpu3.num_conditional_control_insts       601034                       # number of instructions that are conditional controls
system.cpu3.num_int_insts                     7338584                       # number of integer instructions
system.cpu3.num_fp_insts                          372                       # number of float instructions
system.cpu3.num_int_register_reads           14301375                       # number of times the integer registers were read
system.cpu3.num_int_register_writes           6054343                       # number of times the integer registers were written
system.cpu3.num_fp_register_reads                 596                       # number of times the floating registers were read
system.cpu3.num_fp_register_writes                261                       # number of times the floating registers were written
system.cpu3.num_cc_register_reads             4586496                       # number of times the CC registers were read
system.cpu3.num_cc_register_writes            2802876                       # number of times the CC registers were written
system.cpu3.num_mem_refs                      1538238                       # number of memory refs
system.cpu3.num_load_insts                     956146                       # Number of load instructions
system.cpu3.num_store_insts                    582092                       # Number of store instructions
system.cpu3.num_idle_cycles              4758059581.739769                       # Number of idle cycles
system.cpu3.num_busy_cycles              20346234.260231                       # Number of busy cycles
system.cpu3.not_idle_fraction                0.004258                       # Percentage of non-idle cycles
system.cpu3.idle_fraction                    0.995742                       # Percentage of idle cycles
system.cpu3.Branches                           827662                       # Number of branches fetched
system.cpu3.op_class::No_OpClass                78834      1.04%      1.04% # Class of executed instruction
system.cpu3.op_class::IntAlu                  5900071     78.12%     79.16% # Class of executed instruction
system.cpu3.op_class::IntMult                    8391      0.11%     79.27% # Class of executed instruction
system.cpu3.op_class::IntDiv                    26792      0.35%     79.63% # Class of executed instruction
system.cpu3.op_class::FloatAdd                    244      0.00%     79.63% # Class of executed instruction
system.cpu3.op_class::FloatCmp                      0      0.00%     79.63% # Class of executed instruction
system.cpu3.op_class::FloatCvt                      0      0.00%     79.63% # Class of executed instruction
system.cpu3.op_class::FloatMult                     0      0.00%     79.63% # Class of executed instruction
system.cpu3.op_class::FloatDiv                      0      0.00%     79.63% # Class of executed instruction
system.cpu3.op_class::FloatSqrt                     0      0.00%     79.63% # Class of executed instruction
system.cpu3.op_class::SimdAdd                       0      0.00%     79.63% # Class of executed instruction
system.cpu3.op_class::SimdAddAcc                    0      0.00%     79.63% # Class of executed instruction
system.cpu3.op_class::SimdAlu                       0      0.00%     79.63% # Class of executed instruction
system.cpu3.op_class::SimdCmp                       0      0.00%     79.63% # Class of executed instruction
system.cpu3.op_class::SimdCvt                       0      0.00%     79.63% # Class of executed instruction
system.cpu3.op_class::SimdMisc                      0      0.00%     79.63% # Class of executed instruction
system.cpu3.op_class::SimdMult                      0      0.00%     79.63% # Class of executed instruction
system.cpu3.op_class::SimdMultAcc                   0      0.00%     79.63% # Class of executed instruction
system.cpu3.op_class::SimdShift                     0      0.00%     79.63% # Class of executed instruction
system.cpu3.op_class::SimdShiftAcc                  0      0.00%     79.63% # Class of executed instruction
system.cpu3.op_class::SimdSqrt                      0      0.00%     79.63% # Class of executed instruction
system.cpu3.op_class::SimdFloatAdd                  0      0.00%     79.63% # Class of executed instruction
system.cpu3.op_class::SimdFloatAlu                  0      0.00%     79.63% # Class of executed instruction
system.cpu3.op_class::SimdFloatCmp                  0      0.00%     79.63% # Class of executed instruction
system.cpu3.op_class::SimdFloatCvt                  0      0.00%     79.63% # Class of executed instruction
system.cpu3.op_class::SimdFloatDiv                  0      0.00%     79.63% # Class of executed instruction
system.cpu3.op_class::SimdFloatMisc                 0      0.00%     79.63% # Class of executed instruction
system.cpu3.op_class::SimdFloatMult                 0      0.00%     79.63% # Class of executed instruction
system.cpu3.op_class::SimdFloatMultAcc              0      0.00%     79.63% # Class of executed instruction
system.cpu3.op_class::SimdFloatSqrt                 0      0.00%     79.63% # Class of executed instruction
system.cpu3.op_class::MemRead                  956146     12.66%     92.29% # Class of executed instruction
system.cpu3.op_class::MemWrite                 582092      7.71%    100.00% # Class of executed instruction
system.cpu3.op_class::IprAccess                     0      0.00%    100.00% # Class of executed instruction
system.cpu3.op_class::InstPrefetch                  0      0.00%    100.00% # Class of executed instruction
system.cpu3.op_class::total                   7552570                       # Class of executed instruction
system.iobus.trans_dist::ReadReq                  403                       # Transaction distribution
system.iobus.trans_dist::ReadResp                 403                       # Transaction distribution
system.iobus.trans_dist::WriteReq                3096                       # Transaction distribution
system.iobus.trans_dist::WriteResp               3096                       # Transaction distribution
system.iobus.trans_dist::MessageReq                55                       # Transaction distribution
system.iobus.trans_dist::MessageResp               55                       # Transaction distribution
system.iobus.pkt_count_system.pc.south_bridge.io_apic.int_master::system.ruby.l0_cntrl0.sequencer.pio-slave-port           22                       # Packet count per connected master and slave (bytes)
system.iobus.pkt_count_system.pc.south_bridge.io_apic.int_master::system.ruby.l0_cntrl1.sequencer.pio-slave-port           22                       # Packet count per connected master and slave (bytes)
system.iobus.pkt_count_system.pc.south_bridge.io_apic.int_master::system.ruby.l0_cntrl2.sequencer.pio-slave-port           22                       # Packet count per connected master and slave (bytes)
system.iobus.pkt_count_system.pc.south_bridge.io_apic.int_master::system.ruby.l0_cntrl3.sequencer.pio-slave-port           22                       # Packet count per connected master and slave (bytes)
system.iobus.pkt_count_system.pc.south_bridge.io_apic.int_master::total           88                       # Packet count per connected master and slave (bytes)
system.iobus.pkt_count_system.ruby.l0_cntrl0.sequencer.mem-master-port::system.pc.south_bridge.ide.pio          392                       # Packet count per connected master and slave (bytes)
system.iobus.pkt_count_system.ruby.l0_cntrl0.sequencer.mem-master-port::system.pc.south_bridge.io_apic.pio            8                       # Packet count per connected master and slave (bytes)
system.iobus.pkt_count_system.ruby.l0_cntrl0.sequencer.mem-master-port::system.ruby.l0_cntrl0.sequencer.pio-slave-port         1242                       # Packet count per connected master and slave (bytes)
system.iobus.pkt_count_system.ruby.l0_cntrl0.sequencer.mem-master-port::system.ruby.l0_cntrl1.sequencer.pio-slave-port            2                       # Packet count per connected master and slave (bytes)
system.iobus.pkt_count_system.ruby.l0_cntrl0.sequencer.mem-master-port::system.ruby.l0_cntrl3.sequencer.pio-slave-port            4                       # Packet count per connected master and slave (bytes)
system.iobus.pkt_count_system.ruby.l0_cntrl0.sequencer.mem-master-port::total         1648                       # Packet count per connected master and slave (bytes)
system.iobus.pkt_count_system.ruby.l0_cntrl1.sequencer.mem-master-port::system.pc.south_bridge.ide.pio          596                       # Packet count per connected master and slave (bytes)
system.iobus.pkt_count_system.ruby.l0_cntrl1.sequencer.mem-master-port::system.pc.south_bridge.io_apic.pio            8                       # Packet count per connected master and slave (bytes)
system.iobus.pkt_count_system.ruby.l0_cntrl1.sequencer.mem-master-port::system.ruby.l0_cntrl0.sequencer.pio-slave-port            2                       # Packet count per connected master and slave (bytes)
system.iobus.pkt_count_system.ruby.l0_cntrl1.sequencer.mem-master-port::system.ruby.l0_cntrl1.sequencer.pio-slave-port         1236                       # Packet count per connected master and slave (bytes)
system.iobus.pkt_count_system.ruby.l0_cntrl1.sequencer.mem-master-port::system.ruby.l0_cntrl2.sequencer.pio-slave-port            2                       # Packet count per connected master and slave (bytes)
system.iobus.pkt_count_system.ruby.l0_cntrl1.sequencer.mem-master-port::system.ruby.l0_cntrl3.sequencer.pio-slave-port            2                       # Packet count per connected master and slave (bytes)
system.iobus.pkt_count_system.ruby.l0_cntrl1.sequencer.mem-master-port::total         1846                       # Packet count per connected master and slave (bytes)
system.iobus.pkt_count_system.ruby.l0_cntrl2.sequencer.mem-master-port::system.pc.south_bridge.ide.pio          426                       # Packet count per connected master and slave (bytes)
system.iobus.pkt_count_system.ruby.l0_cntrl2.sequencer.mem-master-port::system.pc.south_bridge.io_apic.pio            6                       # Packet count per connected master and slave (bytes)
system.iobus.pkt_count_system.ruby.l0_cntrl2.sequencer.mem-master-port::system.pc.com_1.pio          174                       # Packet count per connected master and slave (bytes)
system.iobus.pkt_count_system.ruby.l0_cntrl2.sequencer.mem-master-port::system.ruby.l0_cntrl2.sequencer.pio-slave-port         1226                       # Packet count per connected master and slave (bytes)
system.iobus.pkt_count_system.ruby.l0_cntrl2.sequencer.mem-master-port::system.ruby.l0_cntrl3.sequencer.pio-slave-port            2                       # Packet count per connected master and slave (bytes)
system.iobus.pkt_count_system.ruby.l0_cntrl2.sequencer.mem-master-port::total         1834                       # Packet count per connected master and slave (bytes)
system.iobus.pkt_count_system.ruby.l0_cntrl3.sequencer.mem-master-port::system.pc.south_bridge.ide.pio          426                       # Packet count per connected master and slave (bytes)
system.iobus.pkt_count_system.ruby.l0_cntrl3.sequencer.mem-master-port::system.pc.south_bridge.io_apic.pio            8                       # Packet count per connected master and slave (bytes)
system.iobus.pkt_count_system.ruby.l0_cntrl3.sequencer.mem-master-port::system.pc.com_1.pio            2                       # Packet count per connected master and slave (bytes)
system.iobus.pkt_count_system.ruby.l0_cntrl3.sequencer.mem-master-port::system.ruby.l0_cntrl0.sequencer.pio-slave-port            6                       # Packet count per connected master and slave (bytes)
system.iobus.pkt_count_system.ruby.l0_cntrl3.sequencer.mem-master-port::system.ruby.l0_cntrl2.sequencer.pio-slave-port            2                       # Packet count per connected master and slave (bytes)
system.iobus.pkt_count_system.ruby.l0_cntrl3.sequencer.mem-master-port::system.ruby.l0_cntrl3.sequencer.pio-slave-port         1248                       # Packet count per connected master and slave (bytes)
system.iobus.pkt_count_system.ruby.l0_cntrl3.sequencer.mem-master-port::total         1692                       # Packet count per connected master and slave (bytes)
system.iobus.pkt_count::total                    7108                       # Packet count per connected master and slave (bytes)
system.iobus.pkt_size_system.pc.south_bridge.io_apic.int_master::system.ruby.l0_cntrl0.sequencer.pio-slave-port           44                       # Cumulative packet size per connected master and slave (bytes)
system.iobus.pkt_size_system.pc.south_bridge.io_apic.int_master::system.ruby.l0_cntrl1.sequencer.pio-slave-port           44                       # Cumulative packet size per connected master and slave (bytes)
system.iobus.pkt_size_system.pc.south_bridge.io_apic.int_master::system.ruby.l0_cntrl2.sequencer.pio-slave-port           44                       # Cumulative packet size per connected master and slave (bytes)
system.iobus.pkt_size_system.pc.south_bridge.io_apic.int_master::system.ruby.l0_cntrl3.sequencer.pio-slave-port           44                       # Cumulative packet size per connected master and slave (bytes)
system.iobus.pkt_size_system.pc.south_bridge.io_apic.int_master::total          176                       # Cumulative packet size per connected master and slave (bytes)
system.iobus.pkt_size_system.ruby.l0_cntrl0.sequencer.mem-master-port::system.pc.south_bridge.ide.pio          220                       # Cumulative packet size per connected master and slave (bytes)
system.iobus.pkt_size_system.ruby.l0_cntrl0.sequencer.mem-master-port::system.pc.south_bridge.io_apic.pio           16                       # Cumulative packet size per connected master and slave (bytes)
system.iobus.pkt_size_system.ruby.l0_cntrl0.sequencer.mem-master-port::system.ruby.l0_cntrl0.sequencer.pio-slave-port         2484                       # Cumulative packet size per connected master and slave (bytes)
system.iobus.pkt_size_system.ruby.l0_cntrl0.sequencer.mem-master-port::system.ruby.l0_cntrl1.sequencer.pio-slave-port            4                       # Cumulative packet size per connected master and slave (bytes)
system.iobus.pkt_size_system.ruby.l0_cntrl0.sequencer.mem-master-port::system.ruby.l0_cntrl3.sequencer.pio-slave-port            8                       # Cumulative packet size per connected master and slave (bytes)
system.iobus.pkt_size_system.ruby.l0_cntrl0.sequencer.mem-master-port::total         2732                       # Cumulative packet size per connected master and slave (bytes)
system.iobus.pkt_size_system.ruby.l0_cntrl1.sequencer.mem-master-port::system.pc.south_bridge.ide.pio          340                       # Cumulative packet size per connected master and slave (bytes)
system.iobus.pkt_size_system.ruby.l0_cntrl1.sequencer.mem-master-port::system.pc.south_bridge.io_apic.pio           16                       # Cumulative packet size per connected master and slave (bytes)
system.iobus.pkt_size_system.ruby.l0_cntrl1.sequencer.mem-master-port::system.ruby.l0_cntrl0.sequencer.pio-slave-port            4                       # Cumulative packet size per connected master and slave (bytes)
system.iobus.pkt_size_system.ruby.l0_cntrl1.sequencer.mem-master-port::system.ruby.l0_cntrl1.sequencer.pio-slave-port         2472                       # Cumulative packet size per connected master and slave (bytes)
system.iobus.pkt_size_system.ruby.l0_cntrl1.sequencer.mem-master-port::system.ruby.l0_cntrl2.sequencer.pio-slave-port            4                       # Cumulative packet size per connected master and slave (bytes)
system.iobus.pkt_size_system.ruby.l0_cntrl1.sequencer.mem-master-port::system.ruby.l0_cntrl3.sequencer.pio-slave-port            4                       # Cumulative packet size per connected master and slave (bytes)
system.iobus.pkt_size_system.ruby.l0_cntrl1.sequencer.mem-master-port::total         2840                       # Cumulative packet size per connected master and slave (bytes)
system.iobus.pkt_size_system.ruby.l0_cntrl2.sequencer.mem-master-port::system.pc.south_bridge.ide.pio          240                       # Cumulative packet size per connected master and slave (bytes)
system.iobus.pkt_size_system.ruby.l0_cntrl2.sequencer.mem-master-port::system.pc.south_bridge.io_apic.pio           12                       # Cumulative packet size per connected master and slave (bytes)
system.iobus.pkt_size_system.ruby.l0_cntrl2.sequencer.mem-master-port::system.pc.com_1.pio           87                       # Cumulative packet size per connected master and slave (bytes)
system.iobus.pkt_size_system.ruby.l0_cntrl2.sequencer.mem-master-port::system.ruby.l0_cntrl2.sequencer.pio-slave-port         2452                       # Cumulative packet size per connected master and slave (bytes)
system.iobus.pkt_size_system.ruby.l0_cntrl2.sequencer.mem-master-port::system.ruby.l0_cntrl3.sequencer.pio-slave-port            4                       # Cumulative packet size per connected master and slave (bytes)
system.iobus.pkt_size_system.ruby.l0_cntrl2.sequencer.mem-master-port::total         2795                       # Cumulative packet size per connected master and slave (bytes)
system.iobus.pkt_size_system.ruby.l0_cntrl3.sequencer.mem-master-port::system.pc.south_bridge.ide.pio          240                       # Cumulative packet size per connected master and slave (bytes)
system.iobus.pkt_size_system.ruby.l0_cntrl3.sequencer.mem-master-port::system.pc.south_bridge.io_apic.pio           16                       # Cumulative packet size per connected master and slave (bytes)
system.iobus.pkt_size_system.ruby.l0_cntrl3.sequencer.mem-master-port::system.pc.com_1.pio            1                       # Cumulative packet size per connected master and slave (bytes)
system.iobus.pkt_size_system.ruby.l0_cntrl3.sequencer.mem-master-port::system.ruby.l0_cntrl0.sequencer.pio-slave-port           12                       # Cumulative packet size per connected master and slave (bytes)
system.iobus.pkt_size_system.ruby.l0_cntrl3.sequencer.mem-master-port::system.ruby.l0_cntrl2.sequencer.pio-slave-port            4                       # Cumulative packet size per connected master and slave (bytes)
system.iobus.pkt_size_system.ruby.l0_cntrl3.sequencer.mem-master-port::system.ruby.l0_cntrl3.sequencer.pio-slave-port         2496                       # Cumulative packet size per connected master and slave (bytes)
system.iobus.pkt_size_system.ruby.l0_cntrl3.sequencer.mem-master-port::total         2769                       # Cumulative packet size per connected master and slave (bytes)
system.iobus.pkt_size::total                    11312                       # Cumulative packet size per connected master and slave (bytes)
system.iobus.reqLayer2.occupancy              1592500                       # Layer occupancy (ticks)
system.iobus.reqLayer2.utilization                0.0                       # Layer utilization (%)
system.iobus.reqLayer8.occupancy                28996                       # Layer occupancy (ticks)
system.iobus.reqLayer8.utilization                0.0                       # Layer utilization (%)
system.iobus.reqLayer12.occupancy              113500                       # Layer occupancy (ticks)
system.iobus.reqLayer12.utilization               0.0                       # Layer utilization (%)
system.iobus.reqLayer17.occupancy             1695452                       # Layer occupancy (ticks)
system.iobus.reqLayer17.utilization               0.0                       # Layer utilization (%)
system.iobus.reqLayer18.occupancy             1543488                       # Layer occupancy (ticks)
system.iobus.reqLayer18.utilization               0.0                       # Layer utilization (%)
system.iobus.reqLayer19.occupancy             1532490                       # Layer occupancy (ticks)
system.iobus.reqLayer19.utilization               0.0                       # Layer utilization (%)
system.iobus.reqLayer20.occupancy             1560489                       # Layer occupancy (ticks)
system.iobus.reqLayer20.utilization               0.0                       # Layer utilization (%)
system.iobus.respLayer0.occupancy               78960                       # Layer occupancy (ticks)
system.iobus.respLayer0.utilization               0.0                       # Layer utilization (%)
system.iobus.respLayer2.occupancy             1212000                       # Layer occupancy (ticks)
system.iobus.respLayer2.utilization               0.0                       # Layer utilization (%)
system.iobus.respLayer4.occupancy             1333000                       # Layer occupancy (ticks)
system.iobus.respLayer4.utilization               0.0                       # Layer utilization (%)
system.iobus.respLayer6.occupancy             1366500                       # Layer occupancy (ticks)
system.iobus.respLayer6.utilization               0.0                       # Layer utilization (%)
system.iobus.respLayer8.occupancy             1240500                       # Layer occupancy (ticks)
system.iobus.respLayer8.utilization               0.0                       # Layer utilization (%)
system.pc.south_bridge.ide.disks.dma_read_full_pages          356                       # Number of full page size DMA reads (not PRD).
system.pc.south_bridge.ide.disks.dma_read_bytes      1458176                       # Number of bytes transfered via DMA reads (not PRD).
system.pc.south_bridge.ide.disks.dma_read_txs          356                       # Number of DMA read transactions (not PRD).
system.pc.south_bridge.ide.disks.dma_write_full_pages            0                       # Number of full page size DMA writes.
system.pc.south_bridge.ide.disks.dma_write_bytes            0                       # Number of bytes transfered via DMA writes.
system.pc.south_bridge.ide.disks.dma_write_txs            0                       # Number of DMA write transactions.
system.ruby.clk_domain.clock                      500                       # Clock period in ticks
system.ruby.delayHist::bucket_size                  4                       # delay histogram for all message
system.ruby.delayHist::max_bucket                  39                       # delay histogram for all message
system.ruby.delayHist::samples               40175237                       # delay histogram for all message
system.ruby.delayHist::mean                  0.226100                       # delay histogram for all message
system.ruby.delayHist::stdev                 1.326238                       # delay histogram for all message
system.ruby.delayHist                    |    39041850     97.18%     97.18% |        1657      0.00%     97.18% |     1131002      2.82%    100.00% |         131      0.00%    100.00% |         569      0.00%    100.00% |           8      0.00%    100.00% |          19      0.00%    100.00% |           1      0.00%    100.00% |           0      0.00%    100.00% |           0      0.00%    100.00% # delay histogram for all message
system.ruby.delayHist::total                 40175237                       # delay histogram for all message
system.ruby.outstanding_req_hist_seqr::bucket_size            1                      
system.ruby.outstanding_req_hist_seqr::max_bucket            9                      
system.ruby.outstanding_req_hist_seqr::samples   2273951272                      
system.ruby.outstanding_req_hist_seqr::mean     1.001962                      
system.ruby.outstanding_req_hist_seqr::gmean     1.001361                      
system.ruby.outstanding_req_hist_seqr::stdev     0.044256                      
system.ruby.outstanding_req_hist_seqr    |           0      0.00%      0.00% |  2269488703     99.80%     99.80% |     4462569      0.20%    100.00% |           0      0.00%    100.00% |           0      0.00%    100.00% |           0      0.00%    100.00% |           0      0.00%    100.00% |           0      0.00%    100.00% |           0      0.00%    100.00% |           0      0.00%    100.00%
system.ruby.outstanding_req_hist_seqr::total   2273951272                      
system.ruby.latency_hist_seqr::bucket_size          256                      
system.ruby.latency_hist_seqr::max_bucket         2559                      
system.ruby.latency_hist_seqr::samples     2273951272                      
system.ruby.latency_hist_seqr::mean          1.116537                      
system.ruby.latency_hist_seqr::gmean         1.019782                      
system.ruby.latency_hist_seqr::stdev         3.599481                      
system.ruby.latency_hist_seqr            |  2273896608    100.00%    100.00% |       35561      0.00%    100.00% |       17644      0.00%    100.00% |         975      0.00%    100.00% |         393      0.00%    100.00% |          76      0.00%    100.00% |          13      0.00%    100.00% |           2      0.00%    100.00% |           0      0.00%    100.00% |           0      0.00%    100.00%
system.ruby.latency_hist_seqr::total       2273951272                      
system.ruby.hit_latency_hist_seqr::bucket_size            1                      
system.ruby.hit_latency_hist_seqr::max_bucket            9                      
[...]
system.ruby.L1Cache_Controller.I.Inv::total        17173                      
system.ruby.L1Cache_Controller.S.Load    |      918748     57.22%     57.22% |      343866     21.42%     78.64% |      175216     10.91%     89.55% |      167806     10.45%    100.00%
system.ruby.L1Cache_Controller.S.Load::total      1605636                      
system.ruby.L1Cache_Controller.S.Store   |        4079     41.04%     41.04% |        2206     22.19%     63.23% |        2156     21.69%     84.92% |        1499     15.08%    100.00%
system.ruby.L1Cache_Controller.S.Store::total         9940                      
system.ruby.L1Cache_Controller.S.L0_Invalidate_Own |      102703     38.79%     38.79% |       82462     31.14%     69.93% |       40351     15.24%     85.16% |       39284     14.84%    100.00%
system.ruby.L1Cache_Controller.S.L0_Invalidate_Own::total       264800                      
system.ruby.L1Cache_Controller.S.L0_Invalidate_Else |         370      1.91%      1.91% |        7166     37.06%     38.98% |        7362     38.08%     77.06% |        4436     22.94%    100.00%
system.ruby.L1Cache_Controller.S.L0_Invalidate_Else::total        19334                      
system.ruby.L1Cache_Controller.SS.Load   |        1525     26.27%     26.27% |        1795     30.92%     57.19% |        1315     22.65%     79.84% |        1170     20.16%    100.00%
system.ruby.L1Cache_Controller.SS.Load::total         5805                      
system.ruby.L1Cache_Controller.SS.Store  |         656     80.49%     80.49% |          44      5.40%     85.89% |          32      3.93%     89.82% |          83     10.18%    100.00%
system.ruby.L1Cache_Controller.SS.Store::total          815                      
system.ruby.L1Cache_Controller.SS.Inv    |        1159      4.14%      4.14% |        8890     31.75%     35.89% |        9518     33.99%     69.88% |        8432     30.12%    100.00%
system.ruby.L1Cache_Controller.SS.Inv::total        27999                      
system.ruby.L1Cache_Controller.SS.L1_Replacement |      104457     38.67%     38.67% |       83721     30.99%     69.67% |       41250     15.27%     84.94% |       40689     15.06%    100.00%
system.ruby.L1Cache_Controller.SS.L1_Replacement::total       270117                      
system.ruby.L1Cache_Controller.E.WriteBack |     1855683     80.95%     80.95% |      344126     15.01%     95.97% |       29933      1.31%     97.27% |       62502      2.73%    100.00%
system.ruby.L1Cache_Controller.E.WriteBack::total      2292244                      
system.ruby.L1Cache_Controller.E.L0_Invalidate_Own |      179174     93.35%     93.35% |       10314      5.37%     98.73% |        1177      0.61%     99.34% |        1264      0.66%    100.00%
system.ruby.L1Cache_Controller.E.L0_Invalidate_Own::total       191929                      
system.ruby.L1Cache_Controller.E.L0_Invalidate_Else |         128      5.53%      5.53% |         600     25.92%     31.45% |         500     21.60%     53.05% |        1087     46.95%    100.00%
system.ruby.L1Cache_Controller.E.L0_Invalidate_Else::total         2315                      
system.ruby.L1Cache_Controller.EE.Inv    |          12      3.05%      3.05% |          68     17.30%     20.36% |         153     38.93%     59.29% |         160     40.71%    100.00%
system.ruby.L1Cache_Controller.EE.Inv::total          393                      
system.ruby.L1Cache_Controller.EE.L1_Replacement |      179025     93.54%     93.54% |       10071      5.26%     98.80% |        1098      0.57%     99.38% |        1192      0.62%    100.00%
system.ruby.L1Cache_Controller.EE.L1_Replacement::total       191386                      
system.ruby.L1Cache_Controller.EE.Fwd_GETX |           7     58.33%     58.33% |           1      8.33%     66.67% |           1      8.33%     75.00% |           3     25.00%    100.00%
system.ruby.L1Cache_Controller.EE.Fwd_GETX::total           12                      
system.ruby.L1Cache_Controller.EE.Fwd_GETS |          88      5.25%      5.25% |         461     27.51%     32.76% |         277     16.53%     49.28% |         850     50.72%    100.00%
system.ruby.L1Cache_Controller.EE.Fwd_GETS::total         1676                      
system.ruby.L1Cache_Controller.M.WriteBack |    19942998     81.13%     81.13% |     4371388     17.78%     98.91% |      109398      0.45%     99.35% |      158651      0.65%    100.00%
system.ruby.L1Cache_Controller.M.WriteBack::total     24582435                      
system.ruby.L1Cache_Controller.M.L0_Invalidate_Own |       63743     84.20%     84.20% |        7926     10.47%     94.67% |        1374      1.81%     96.48% |        2661      3.52%    100.00%
system.ruby.L1Cache_Controller.M.L0_Invalidate_Own::total        75704                      
system.ruby.L1Cache_Controller.M.L0_Invalidate_Else |         464      8.29%      8.29% |        1850     33.06%     41.35% |        1643     29.36%     70.71% |        1639     29.29%    100.00%
system.ruby.L1Cache_Controller.M.L0_Invalidate_Else::total         5596                      
system.ruby.L1Cache_Controller.MM.Load   |    17742128     81.00%     81.00% |     4005433     18.29%     99.28% |       64620      0.30%     99.58% |       92066      0.42%    100.00%
system.ruby.L1Cache_Controller.MM.Load::total     21904247                      
system.ruby.L1Cache_Controller.MM.Store  |     1731749     82.76%     82.76% |      277945     13.28%     96.04% |       31113      1.49%     97.53% |       51779      2.47%    100.00%
system.ruby.L1Cache_Controller.MM.Store::total      2092586                      
system.ruby.L1Cache_Controller.MM.Inv    |         393      5.77%      5.77% |        2025     29.71%     35.48% |        1992     29.23%     64.70% |        2406     35.30%    100.00%
system.ruby.L1Cache_Controller.MM.Inv::total         6816                      
system.ruby.L1Cache_Controller.MM.L1_Replacement |     2383672     81.30%     81.30% |      435332     14.85%     96.14% |       39846      1.36%     97.50% |       73224      2.50%    100.00%
system.ruby.L1Cache_Controller.MM.L1_Replacement::total      2932074                      
system.ruby.L1Cache_Controller.MM.Fwd_GETX |         435     18.76%     18.76% |         887     38.25%     57.01% |         511     22.04%     79.04% |         486     20.96%    100.00%
system.ruby.L1Cache_Controller.MM.Fwd_GETX::total         2319                      
system.ruby.L1Cache_Controller.MM.Fwd_GETS |        4536     24.30%     24.30% |        4403     23.59%     47.90% |        3884     20.81%     68.71% |        5840     31.29%    100.00%
system.ruby.L1Cache_Controller.MM.Fwd_GETS::total        18663                      
system.ruby.L1Cache_Controller.IS.Data_Exclusive |     2034995     81.84%     81.84% |      355009     14.28%     96.12% |       31625      1.27%     97.39% |       64839      2.61%    100.00%
system.ruby.L1Cache_Controller.IS.Data_Exclusive::total      2486468                      
system.ruby.L1Cache_Controller.IS.DataS_fromL1 |        2133     10.49%     10.49% |        6478     31.85%     42.34% |        5335     26.23%     68.56% |        6394     31.44%    100.00%
system.ruby.L1Cache_Controller.IS.DataS_fromL1::total        20340                      
system.ruby.L1Cache_Controller.IS.Data_all_Acks |      103336     38.54%     38.54% |       83883     31.29%     69.83% |       43100     16.08%     85.91% |       37778     14.09%    100.00%
system.ruby.L1Cache_Controller.IS.Data_all_Acks::total       268097                      
system.ruby.L1Cache_Controller.IM.Data   |        1401     38.97%     38.97% |         831     23.12%     62.09% |         628     17.47%     79.55% |         735     20.45%    100.00%
system.ruby.L1Cache_Controller.IM.Data::total         3595                      
system.ruby.L1Cache_Controller.IM.Data_all_Acks |      527196     80.79%     80.79% |       94689     14.51%     95.30% |       13881      2.13%     97.43% |       16787      2.57%    100.00%
system.ruby.L1Cache_Controller.IM.Data_all_Acks::total       652553                      
system.ruby.L1Cache_Controller.SM.Inv    |           0      0.00%      0.00% |           0      0.00%      0.00% |           1    100.00%    100.00% |           0      0.00%    100.00%
system.ruby.L1Cache_Controller.SM.Inv::total            1                      
system.ruby.L1Cache_Controller.SM.Ack    |       14160     56.93%     56.93% |        4208     16.92%     73.85% |        3763     15.13%     88.98% |        2740     11.02%    100.00%
system.ruby.L1Cache_Controller.SM.Ack::total        24871                      
system.ruby.L1Cache_Controller.SM.Ack_all |        6136     42.76%     42.76% |        3081     21.47%     64.23% |        2815     19.62%     83.85% |        2317     16.15%    100.00%
system.ruby.L1Cache_Controller.SM.Ack_all::total        14349                      
system.ruby.L1Cache_Controller.M_I.Fwd_GETX |           0      0.00%      0.00% |           0      0.00%      0.00% |           0      0.00%      0.00% |           1    100.00%    100.00%
system.ruby.L1Cache_Controller.M_I.Fwd_GETX::total            1                      
system.ruby.L1Cache_Controller.M_I.Fwd_GETS |           1    100.00%    100.00% |           0      0.00%    100.00% |           0      0.00%    100.00% |           0      0.00%    100.00%
system.ruby.L1Cache_Controller.M_I.Fwd_GETS::total            1                      
system.ruby.L1Cache_Controller.M_I.WB_Ack |     2562696     82.05%     82.05% |      445403     14.26%     96.31% |       40944      1.31%     97.62% |       74415      2.38%    100.00%
system.ruby.L1Cache_Controller.M_I.WB_Ack::total      3123458                      
system.ruby.L1Cache_Controller.SINK_WB_ACK.WB_Ack |           1     50.00%     50.00% |           0      0.00%     50.00% |           0      0.00%     50.00% |           1     50.00%    100.00%
system.ruby.L1Cache_Controller.SINK_WB_ACK.WB_Ack::total            2                      
system.ruby.L1Cache_Controller.S_IL0.Store |           0      0.00%      0.00% |           0      0.00%      0.00% |           1    100.00%    100.00% |           0      0.00%    100.00%
system.ruby.L1Cache_Controller.S_IL0.Store::total            1                      
system.ruby.L1Cache_Controller.S_IL0.L0_Invalidate_Own |      102703     38.79%     38.79% |       82462     31.14%     69.93% |       40351     15.24%     85.16% |       39284     14.84%    100.00%
system.ruby.L1Cache_Controller.S_IL0.L0_Invalidate_Own::total       264800                      
system.ruby.L1Cache_Controller.S_IL0.L0_Invalidate_Else |         370      1.91%      1.91% |        7166     37.06%     38.98% |        7362     38.08%     77.06% |        4436     22.94%    100.00%
system.ruby.L1Cache_Controller.S_IL0.L0_Invalidate_Else::total        19334                      
system.ruby.L1Cache_Controller.S_IL0.L0_Ack |      103073     36.28%     36.28% |       89628     31.54%     67.82% |       47713     16.79%     84.61% |       43720     15.39%    100.00%
system.ruby.L1Cache_Controller.S_IL0.L0_Ack::total       284134                      
system.ruby.L1Cache_Controller.E_IL0.L0_DataAck |         170     21.88%     21.88% |         313     40.28%     62.16% |         148     19.05%     81.21% |         146     18.79%    100.00%
system.ruby.L1Cache_Controller.E_IL0.L0_DataAck::total          777                      
system.ruby.L1Cache_Controller.E_IL0.L0_Invalidate_Own |      179174     93.35%     93.35% |       10314      5.37%     98.73% |        1177      0.61%     99.34% |        1264      0.66%    100.00%
system.ruby.L1Cache_Controller.E_IL0.L0_Invalidate_Own::total       191929                      
system.ruby.L1Cache_Controller.E_IL0.L0_Invalidate_Else |         128      5.53%      5.53% |         600     25.92%     31.45% |         500     21.60%     53.05% |        1087     46.95%    100.00%
system.ruby.L1Cache_Controller.E_IL0.L0_Invalidate_Else::total         2315                      
system.ruby.L1Cache_Controller.E_IL0.L0_Ack |      179132     92.59%     92.59% |       10601      5.48%     98.07% |        1529      0.79%     98.86% |        2205      1.14%    100.00%
system.ruby.L1Cache_Controller.E_IL0.L0_Ack::total       193467                      
system.ruby.L1Cache_Controller.M_IL0.WriteBack |           0      0.00%      0.00% |           0      0.00%      0.00% |           0      0.00%      0.00% |           1    100.00%    100.00%
system.ruby.L1Cache_Controller.M_IL0.WriteBack::total            1                      
system.ruby.L1Cache_Controller.M_IL0.L0_DataAck |        6583     43.80%     43.80% |        3767     25.07%     68.87% |        2152     14.32%     83.19% |        2526     16.81%    100.00%
system.ruby.L1Cache_Controller.M_IL0.L0_DataAck::total        15028                      
system.ruby.L1Cache_Controller.M_IL0.L0_Invalidate_Own |       63743     84.20%     84.20% |        7926     10.47%     94.67% |        1374      1.81%     96.48% |        2661      3.52%    100.00%
system.ruby.L1Cache_Controller.M_IL0.L0_Invalidate_Own::total        75704                      
system.ruby.L1Cache_Controller.M_IL0.L0_Invalidate_Else |         464      8.29%      8.29% |        1850     33.06%     41.35% |        1643     29.36%     70.71% |        1639     29.29%    100.00%
system.ruby.L1Cache_Controller.M_IL0.L0_Invalidate_Else::total         5596                      
system.ruby.L1Cache_Controller.M_IL0.L0_Ack |       57624     86.95%     86.95% |        6009      9.07%     96.02% |         865      1.31%     97.32% |        1773      2.68%    100.00%
system.ruby.L1Cache_Controller.M_IL0.L0_Ack::total        66271                      
system.ruby.L1Cache_Controller.MM_IL0.Fwd_GETS |           0      0.00%      0.00% |           0      0.00%      0.00% |           0      0.00%      0.00% |           1    100.00%    100.00%
system.ruby.L1Cache_Controller.MM_IL0.Fwd_GETS::total            1                      
system.ruby.L1Cache_Controller.MM_IL0.L0_Ack |           0      0.00%      0.00% |           0      0.00%      0.00% |           0      0.00%      0.00% |           1    100.00%    100.00%
system.ruby.L1Cache_Controller.MM_IL0.L0_Ack::total            1                      
system.ruby.L2Cache_Controller.L1_GETS        2774958      0.00%      0.00%
system.ruby.L2Cache_Controller.L1_GETX         656153      0.00%      0.00%
system.ruby.L2Cache_Controller.L1_UPGRADE        10755      0.00%      0.00%
system.ruby.L2Cache_Controller.L1_PUTX        3123461      0.00%      0.00%
system.ruby.L2Cache_Controller.L1_PUTX_old            1      0.00%      0.00%
system.ruby.L2Cache_Controller.L2_Replacement       686698      0.00%      0.00%
system.ruby.L2Cache_Controller.L2_Replacement_clean       392194      0.00%      0.00%
system.ruby.L2Cache_Controller.Mem_Data       1107512      0.00%      0.00%
system.ruby.L2Cache_Controller.Mem_Ack        1079133      0.00%      0.00%
system.ruby.L2Cache_Controller.WB_Data          13176      0.00%      0.00%
system.ruby.L2Cache_Controller.WB_Data_clean        13980      0.00%      0.00%
system.ruby.L2Cache_Controller.Ack              11424      0.00%      0.00%
system.ruby.L2Cache_Controller.Ack_all           5676      0.00%      0.00%
system.ruby.L2Cache_Controller.Unblock          20340      0.00%      0.00%
system.ruby.L2Cache_Controller.Exclusive_Unblock      3153370      0.00%      0.00%
system.ruby.L2Cache_Controller.MEM_Inv            482      0.00%      0.00%
system.ruby.L2Cache_Controller.NP.L1_GETS       636490      0.00%      0.00%
system.ruby.L2Cache_Controller.NP.L1_GETX       471022      0.00%      0.00%
system.ruby.L2Cache_Controller.SS.L1_GETS       268077      0.00%      0.00%
system.ruby.L2Cache_Controller.SS.L1_GETX         3595      0.00%      0.00%
system.ruby.L2Cache_Controller.SS.L1_UPGRADE        10754      0.00%      0.00%
system.ruby.L2Cache_Controller.SS.L1_PUTX            1      0.00%      0.00%
system.ruby.L2Cache_Controller.SS.L2_Replacement          563      0.00%      0.00%
system.ruby.L2Cache_Controller.SS.L2_Replacement_clean         4720      0.00%      0.00%
system.ruby.L2Cache_Controller.M.L1_GETS      1849988      0.00%      0.00%
system.ruby.L2Cache_Controller.M.L1_GETX       179199      0.00%      0.00%
system.ruby.L2Cache_Controller.M.L2_Replacement       684683      0.00%      0.00%
system.ruby.L2Cache_Controller.M.L2_Replacement_clean       381783      0.00%      0.00%
system.ruby.L2Cache_Controller.M.MEM_Inv          175      0.00%      0.00%
system.ruby.L2Cache_Controller.MT.L1_GETS        20340      0.00%      0.00%
system.ruby.L2Cache_Controller.MT.L1_GETX         2332      0.00%      0.00%
system.ruby.L2Cache_Controller.MT.L1_PUTX      3123458      0.00%      0.00%
system.ruby.L2Cache_Controller.MT.L1_PUTX_old            1      0.00%      0.00%
system.ruby.L2Cache_Controller.MT.L2_Replacement         1452      0.00%      0.00%
system.ruby.L2Cache_Controller.MT.L2_Replacement_clean         5691      0.00%      0.00%
system.ruby.L2Cache_Controller.MT.MEM_Inv           66      0.00%      0.00%
system.ruby.L2Cache_Controller.M_I.Mem_Ack      1079133      0.00%      0.00%
system.ruby.L2Cache_Controller.M_I.MEM_Inv          175      0.00%      0.00%
system.ruby.L2Cache_Controller.MT_I.WB_Data         1230      0.00%      0.00%
system.ruby.L2Cache_Controller.MT_I.WB_Data_clean          269      0.00%      0.00%
system.ruby.L2Cache_Controller.MT_I.Ack_all           19      0.00%      0.00%
system.ruby.L2Cache_Controller.MT_I.MEM_Inv           66      0.00%      0.00%
system.ruby.L2Cache_Controller.MCT_I.WB_Data         3016      0.00%      0.00%
system.ruby.L2Cache_Controller.MCT_I.WB_Data_clean         2301      0.00%      0.00%
system.ruby.L2Cache_Controller.MCT_I.Ack_all          374      0.00%      0.00%
system.ruby.L2Cache_Controller.I_I.Ack          10713      0.00%      0.00%
system.ruby.L2Cache_Controller.I_I.Ack_all         4720      0.00%      0.00%
system.ruby.L2Cache_Controller.S_I.Ack            711      0.00%      0.00%
system.ruby.L2Cache_Controller.S_I.Ack_all          563      0.00%      0.00%
system.ruby.L2Cache_Controller.ISS.L1_GETS           10      0.00%      0.00%
system.ruby.L2Cache_Controller.ISS.Mem_Data       636480      0.00%      0.00%
system.ruby.L2Cache_Controller.IS.Mem_Data           10      0.00%      0.00%
system.ruby.L2Cache_Controller.IM.Mem_Data       471022      0.00%      0.00%
system.ruby.L2Cache_Controller.SS_MB.L1_GETS           32      0.00%      0.00%
system.ruby.L2Cache_Controller.SS_MB.L1_GETX            1      0.00%      0.00%
system.ruby.L2Cache_Controller.SS_MB.L1_UPGRADE            1      0.00%      0.00%
system.ruby.L2Cache_Controller.SS_MB.Exclusive_Unblock        14349      0.00%      0.00%
system.ruby.L2Cache_Controller.MT_MB.L1_GETS           15      0.00%      0.00%
system.ruby.L2Cache_Controller.MT_MB.L1_GETX            4      0.00%      0.00%
system.ruby.L2Cache_Controller.MT_MB.L1_PUTX            1      0.00%      0.00%
system.ruby.L2Cache_Controller.MT_MB.Exclusive_Unblock      3139021      0.00%      0.00%
system.ruby.L2Cache_Controller.MT_IIB.L1_GETS            6      0.00%      0.00%
system.ruby.L2Cache_Controller.MT_IIB.L1_PUTX            1      0.00%      0.00%
system.ruby.L2Cache_Controller.MT_IIB.WB_Data         8927      0.00%      0.00%
system.ruby.L2Cache_Controller.MT_IIB.WB_Data_clean        11388      0.00%      0.00%
system.ruby.L2Cache_Controller.MT_IIB.Unblock           25      0.00%      0.00%
system.ruby.L2Cache_Controller.MT_IB.WB_Data            3      0.00%      0.00%
system.ruby.L2Cache_Controller.MT_IB.WB_Data_clean           22      0.00%      0.00%
system.ruby.L2Cache_Controller.MT_SB.Unblock        20315      0.00%      0.00%

---------- End Simulation Statistics   ----------
