
---------- Begin Simulation Statistics ----------
sim_seconds                                  3.907569                       # Number of seconds simulated
sim_ticks                                3907568559000                       # Number of ticks simulated
final_tick                               56098840962001                       # Number of ticks from beginning of simulation (restored from checkpoints and never reset)
sim_freq                                 1000000000000                       # Frequency of simulated ticks
host_inst_rate                                 145974                       # Simulator instruction rate (inst/s)
host_op_rate                                   204649                       # Simulator op (including micro ops) rate (op/s)
host_tick_rate                              253444095                       # Simulator tick rate (ticks/s)
host_mem_usage                                1816760                       # Number of bytes of host memory used
host_seconds                                 15417.87                       # Real time elapsed on the host
sim_insts                                  2250605026                       # Number of instructions simulated
sim_ops                                    3155251764                       # Number of ops (including micro ops) simulated
system.voltage_domain.voltage                       1                       # Voltage in Volts
system.clk_domain.clock                          1000                       # Clock period in ticks
system.mem_ctrls.bytes_read::ruby.dir_cntrl0    108067584                       # Number of bytes read from this memory
system.mem_ctrls.bytes_read::total          108067584                       # Number of bytes read from this memory
system.mem_ctrls.bytes_written::ruby.dir_cntrl0     53863552                       # Number of bytes written to this memory
system.mem_ctrls.bytes_written::total        53863552                       # Number of bytes written to this memory
system.mem_ctrls.num_reads::ruby.dir_cntrl0      1688556                       # Number of read requests responded to by this memory
system.mem_ctrls.num_reads::total             1688556                       # Number of read requests responded to by this memory
system.mem_ctrls.num_writes::ruby.dir_cntrl0       841618                       # Number of write requests responded to by this memory
system.mem_ctrls.num_writes::total             841618                       # Number of write requests responded to by this memory
system.mem_ctrls.bw_read::ruby.dir_cntrl0     27655966                       # Total read bandwidth from this memory (bytes/s)
system.mem_ctrls.bw_read::total              27655966                       # Total read bandwidth from this memory (bytes/s)
system.mem_ctrls.bw_write::ruby.dir_cntrl0     13784416                       # Write bandwidth from this memory (bytes/s)
system.mem_ctrls.bw_write::total             13784416                       # Write bandwidth from this memory (bytes/s)
system.mem_ctrls.bw_total::ruby.dir_cntrl0     41440383                       # Total bandwidth to/from this memory (bytes/s)
system.mem_ctrls.bw_total::total             41440383                       # Total bandwidth to/from this memory (bytes/s)
system.mem_ctrls.readReqs                     1688556                       # Number of read requests accepted
system.mem_ctrls.writeReqs                     841618                       # Number of write requests accepted
system.mem_ctrls.readBursts                   1688556                       # Number of DRAM read bursts, including those serviced by the write queue
system.mem_ctrls.writeBursts                   841618                       # Number of DRAM write bursts, including those merged in the write queue
system.mem_ctrls.bytesReadDRAM              107660288                       # Total number of bytes read from DRAM
system.mem_ctrls.bytesReadWrQ                  407296                       # Total number of bytes read from write queue
system.mem_ctrls.bytesWritten                53854720                       # Total number of bytes written to DRAM
system.mem_ctrls.bytesReadSys               108067584                       # Total read bytes from the system interface side
system.mem_ctrls.bytesWrittenSys             53863552                       # Total written bytes from the system interface side
system.mem_ctrls.servicedByWrQ                   6364                       # Number of DRAM read bursts serviced by the write queue
system.mem_ctrls.mergedWrBursts                   118                       # Number of DRAM write bursts merged with an existing one
system.mem_ctrls.neitherReadNorWriteReqs            0                       # Number of requests that are neither read nor write
system.mem_ctrls.perBankRdBursts::0            113648                       # Per bank write bursts
system.mem_ctrls.perBankRdBursts::1            117196                       # Per bank write bursts
system.mem_ctrls.perBankRdBursts::2            102028                       # Per bank write bursts
system.mem_ctrls.perBankRdBursts::3             98308                       # Per bank write bursts
system.mem_ctrls.perBankRdBursts::4             98400                       # Per bank write bursts
system.mem_ctrls.perBankRdBursts::5             97027                       # Per bank write bursts
system.mem_ctrls.perBankRdBursts::6            103645                       # Per bank write bursts
system.mem_ctrls.perBankRdBursts::7            100805                       # Per bank write bursts
system.mem_ctrls.perBankRdBursts::8            102817                       # Per bank write bursts
system.mem_ctrls.perBankRdBursts::9            101220                       # Per bank write bursts
system.mem_ctrls.perBankRdBursts::10           107245                       # Per bank write bursts
system.mem_ctrls.perBankRdBursts::11           101367                       # Per bank write bursts
system.mem_ctrls.perBankRdBursts::12           105279                       # Per bank write bursts
system.mem_ctrls.perBankRdBursts::13           108440                       # Per bank write bursts
system.mem_ctrls.perBankRdBursts::14           113979                       # Per bank write bursts
system.mem_ctrls.perBankRdBursts::15           110788                       # Per bank write bursts
system.mem_ctrls.perBankWrBursts::0             55898                       # Per bank write bursts
system.mem_ctrls.perBankWrBursts::1             58644                       # Per bank write bursts
system.mem_ctrls.perBankWrBursts::2             51341                       # Per bank write bursts
system.mem_ctrls.perBankWrBursts::3             49537                       # Per bank write bursts
system.mem_ctrls.perBankWrBursts::4             49433                       # Per bank write bursts
system.mem_ctrls.perBankWrBursts::5             49393                       # Per bank write bursts
system.mem_ctrls.perBankWrBursts::6             52118                       # Per bank write bursts
system.mem_ctrls.perBankWrBursts::7             50496                       # Per bank write bursts
system.mem_ctrls.perBankWrBursts::8             51349                       # Per bank write bursts
system.mem_ctrls.perBankWrBursts::9             51039                       # Per bank write bursts
system.mem_ctrls.perBankWrBursts::10            51611                       # Per bank write bursts
system.mem_ctrls.perBankWrBursts::11            50888                       # Per bank write bursts
system.mem_ctrls.perBankWrBursts::12            53089                       # Per bank write bursts
system.mem_ctrls.perBankWrBursts::13            54693                       # Per bank write bursts
system.mem_ctrls.perBankWrBursts::14            55919                       # Per bank write bursts
system.mem_ctrls.perBankWrBursts::15            56032                       # Per bank write bursts
system.mem_ctrls.numRdRetry                         0                       # Number of times read queue was full causing retry
system.mem_ctrls.numWrRetry                         0                       # Number of times write queue was full causing retry
system.mem_ctrls.totGap                  3907568659000                       # Total gap between requests
system.mem_ctrls.readPktSize::0                     0                       # Read request sizes (log2)
system.mem_ctrls.readPktSize::1                     0                       # Read request sizes (log2)
system.mem_ctrls.readPktSize::2                     0                       # Read request sizes (log2)
system.mem_ctrls.readPktSize::3                     0                       # Read request sizes (log2)
system.mem_ctrls.readPktSize::4                     0                       # Read request sizes (log2)
system.mem_ctrls.readPktSize::5                     0                       # Read request sizes (log2)
system.mem_ctrls.readPktSize::6               1688556                       # Read request sizes (log2)
system.mem_ctrls.writePktSize::0                    0                       # Write request sizes (log2)
system.mem_ctrls.writePktSize::1                    0                       # Write request sizes (log2)
system.mem_ctrls.writePktSize::2                    0                       # Write request sizes (log2)
system.mem_ctrls.writePktSize::3                    0                       # Write request sizes (log2)
system.mem_ctrls.writePktSize::4                    0                       # Write request sizes (log2)
system.mem_ctrls.writePktSize::5                    0                       # Write request sizes (log2)
system.mem_ctrls.writePktSize::6               841618                       # Write request sizes (log2)
system.mem_ctrls.rdQLenPdf::0                 1681445                       # What read queue length does an incoming req see
system.mem_ctrls.rdQLenPdf::1                     747                       # What read queue length does an incoming req see
system.mem_ctrls.rdQLenPdf::2                       0                       # What read queue length does an incoming req see
system.mem_ctrls.rdQLenPdf::3                       0                       # What read queue length does an incoming req see
system.mem_ctrls.rdQLenPdf::4                       0                       # What read queue length does an incoming req see
system.mem_ctrls.rdQLenPdf::5                       0                       # What read queue length does an incoming req see
system.mem_ctrls.rdQLenPdf::6                       0                       # What read queue length does an incoming req see
system.mem_ctrls.rdQLenPdf::7                       0                       # What read queue length does an incoming req see
system.mem_ctrls.rdQLenPdf::8                       0                       # What read queue length does an incoming req see
system.mem_ctrls.rdQLenPdf::9                       0                       # What read queue length does an incoming req see
system.mem_ctrls.rdQLenPdf::10                      0                       # What read queue length does an incoming req see
system.mem_ctrls.rdQLenPdf::11                      0                       # What read queue length does an incoming req see
system.mem_ctrls.rdQLenPdf::12                      0                       # What read queue length does an incoming req see
system.mem_ctrls.rdQLenPdf::13                      0                       # What read queue length does an incoming req see
system.mem_ctrls.rdQLenPdf::14                      0                       # What read queue length does an incoming req see
system.mem_ctrls.rdQLenPdf::15                      0                       # What read queue length does an incoming req see
system.mem_ctrls.rdQLenPdf::16                      0                       # What read queue length does an incoming req see
system.mem_ctrls.rdQLenPdf::17                      0                       # What read queue length does an incoming req see
system.mem_ctrls.rdQLenPdf::18                      0                       # What read queue length does an incoming req see
system.mem_ctrls.rdQLenPdf::19                      0                       # What read queue length does an incoming req see
system.mem_ctrls.rdQLenPdf::20                      0                       # What read queue length does an incoming req see
system.mem_ctrls.rdQLenPdf::21                      0                       # What read queue length does an incoming req see
system.mem_ctrls.rdQLenPdf::22                      0                       # What read queue length does an incoming req see
system.mem_ctrls.rdQLenPdf::23                      0                       # What read queue length does an incoming req see
system.mem_ctrls.rdQLenPdf::24                      0                       # What read queue length does an incoming req see
system.mem_ctrls.rdQLenPdf::25                      0                       # What read queue length does an incoming req see
system.mem_ctrls.rdQLenPdf::26                      0                       # What read queue length does an incoming req see
system.mem_ctrls.rdQLenPdf::27                      0                       # What read queue length does an incoming req see
system.mem_ctrls.rdQLenPdf::28                      0                       # What read queue length does an incoming req see
system.mem_ctrls.rdQLenPdf::29                      0                       # What read queue length does an incoming req see
system.mem_ctrls.rdQLenPdf::30                      0                       # What read queue length does an incoming req see
system.mem_ctrls.rdQLenPdf::31                      0                       # What read queue length does an incoming req see
system.mem_ctrls.wrQLenPdf::0                       1                       # What write queue length does an incoming req see
system.mem_ctrls.wrQLenPdf::1                       1                       # What write queue length does an incoming req see
system.mem_ctrls.wrQLenPdf::2                       1                       # What write queue length does an incoming req see
system.mem_ctrls.wrQLenPdf::3                       1                       # What write queue length does an incoming req see
system.mem_ctrls.wrQLenPdf::4                       1                       # What write queue length does an incoming req see
system.mem_ctrls.wrQLenPdf::5                       1                       # What write queue length does an incoming req see
system.mem_ctrls.wrQLenPdf::6                       1                       # What write queue length does an incoming req see
system.mem_ctrls.wrQLenPdf::7                       1                       # What write queue length does an incoming req see
system.mem_ctrls.wrQLenPdf::8                       1                       # What write queue length does an incoming req see
system.mem_ctrls.wrQLenPdf::9                       1                       # What write queue length does an incoming req see
system.mem_ctrls.wrQLenPdf::10                      1                       # What write queue length does an incoming req see
system.mem_ctrls.wrQLenPdf::11                      1                       # What write queue length does an incoming req see
system.mem_ctrls.wrQLenPdf::12                      1                       # What write queue length does an incoming req see
system.mem_ctrls.wrQLenPdf::13                      1                       # What write queue length does an incoming req see
system.mem_ctrls.wrQLenPdf::14                      1                       # What write queue length does an incoming req see
system.mem_ctrls.wrQLenPdf::15                  26503                       # What write queue length does an incoming req see
system.mem_ctrls.wrQLenPdf::16                  28423                       # What write queue length does an incoming req see
system.mem_ctrls.wrQLenPdf::17                  41024                       # What write queue length does an incoming req see
system.mem_ctrls.wrQLenPdf::18                  50064                       # What write queue length does an incoming req see
system.mem_ctrls.wrQLenPdf::19                  50588                       # What write queue length does an incoming req see
system.mem_ctrls.wrQLenPdf::20                  50589                       # What write queue length does an incoming req see
system.mem_ctrls.wrQLenPdf::21                  50262                       # What write queue length does an incoming req see
system.mem_ctrls.wrQLenPdf::22                  49825                       # What write queue length does an incoming req see
system.mem_ctrls.wrQLenPdf::23                  49736                       # What write queue length does an incoming req see
system.mem_ctrls.wrQLenPdf::24                  49543                       # What write queue length does an incoming req see
system.mem_ctrls.wrQLenPdf::25                  49584                       # What write queue length does an incoming req see
system.mem_ctrls.wrQLenPdf::26                  49555                       # What write queue length does an incoming req see
system.mem_ctrls.wrQLenPdf::27                  49622                       # What write queue length does an incoming req see
system.mem_ctrls.wrQLenPdf::28                  49328                       # What write queue length does an incoming req see
system.mem_ctrls.wrQLenPdf::29                  49501                       # What write queue length does an incoming req see
system.mem_ctrls.wrQLenPdf::30                  49004                       # What write queue length does an incoming req see
system.mem_ctrls.wrQLenPdf::31                  48957                       # What write queue length does an incoming req see
system.mem_ctrls.wrQLenPdf::32                  49204                       # What write queue length does an incoming req see
system.mem_ctrls.wrQLenPdf::33                    135                       # What write queue length does an incoming req see
system.mem_ctrls.wrQLenPdf::34                     26                       # What write queue length does an incoming req see
system.mem_ctrls.wrQLenPdf::35                      8                       # What write queue length does an incoming req see
system.mem_ctrls.wrQLenPdf::36                      3                       # What write queue length does an incoming req see
system.mem_ctrls.wrQLenPdf::37                      1                       # What write queue length does an incoming req see
system.mem_ctrls.wrQLenPdf::38                      0                       # What write queue length does an incoming req see
system.mem_ctrls.wrQLenPdf::39                      0                       # What write queue length does an incoming req see
system.mem_ctrls.wrQLenPdf::40                      0                       # What write queue length does an incoming req see
system.mem_ctrls.wrQLenPdf::41                      0                       # What write queue length does an incoming req see
system.mem_ctrls.wrQLenPdf::42                      0                       # What write queue length does an incoming req see
system.mem_ctrls.wrQLenPdf::43                      0                       # What write queue length does an incoming req see
system.mem_ctrls.wrQLenPdf::44                      0                       # What write queue length does an incoming req see
system.mem_ctrls.wrQLenPdf::45                      0                       # What write queue length does an incoming req see
system.mem_ctrls.wrQLenPdf::46                      0                       # What write queue length does an incoming req see
system.mem_ctrls.wrQLenPdf::47                      0                       # What write queue length does an incoming req see
system.mem_ctrls.wrQLenPdf::48                      0                       # What write queue length does an incoming req see
system.mem_ctrls.wrQLenPdf::49                      0                       # What write queue length does an incoming req see
system.mem_ctrls.wrQLenPdf::50                      0                       # What write queue length does an incoming req see
system.mem_ctrls.wrQLenPdf::51                      0                       # What write queue length does an incoming req see
system.mem_ctrls.wrQLenPdf::52                      0                       # What write queue length does an incoming req see
system.mem_ctrls.wrQLenPdf::53                      0                       # What write queue length does an incoming req see
system.mem_ctrls.wrQLenPdf::54                      0                       # What write queue length does an incoming req see
system.mem_ctrls.wrQLenPdf::55                      0                       # What write queue length does an incoming req see
system.mem_ctrls.wrQLenPdf::56                      0                       # What write queue length does an incoming req see
system.mem_ctrls.wrQLenPdf::57                      0                       # What write queue length does an incoming req see
system.mem_ctrls.wrQLenPdf::58                      0                       # What write queue length does an incoming req see
system.mem_ctrls.wrQLenPdf::59                      0                       # What write queue length does an incoming req see
system.mem_ctrls.wrQLenPdf::60                      0                       # What write queue length does an incoming req see
system.mem_ctrls.wrQLenPdf::61                      0                       # What write queue length does an incoming req see
system.mem_ctrls.wrQLenPdf::62                      0                       # What write queue length does an incoming req see
system.mem_ctrls.wrQLenPdf::63                      0                       # What write queue length does an incoming req see
system.mem_ctrls.bytesPerActivate::samples      1515438                       # Bytes accessed per row activation
system.mem_ctrls.bytesPerActivate::mean    106.579753                       # Bytes accessed per row activation
system.mem_ctrls.bytesPerActivate::gmean    83.586385                       # Bytes accessed per row activation
system.mem_ctrls.bytesPerActivate::stdev   131.874199                       # Bytes accessed per row activation
system.mem_ctrls.bytesPerActivate::0-127      1125936     74.30%     74.30% # Bytes accessed per row activation
system.mem_ctrls.bytesPerActivate::128-255       302629     19.97%     94.27% # Bytes accessed per row activation
system.mem_ctrls.bytesPerActivate::256-383        31522      2.08%     96.35% # Bytes accessed per row activation
system.mem_ctrls.bytesPerActivate::384-511        14032      0.93%     97.27% # Bytes accessed per row activation
system.mem_ctrls.bytesPerActivate::512-639        10124      0.67%     97.94% # Bytes accessed per row activation
system.mem_ctrls.bytesPerActivate::640-767         8541      0.56%     98.51% # Bytes accessed per row activation
system.mem_ctrls.bytesPerActivate::768-895         4649      0.31%     98.81% # Bytes accessed per row activation
system.mem_ctrls.bytesPerActivate::896-1023         2421      0.16%     98.97% # Bytes accessed per row activation
system.mem_ctrls.bytesPerActivate::1024-1151        15584      1.03%    100.00% # Bytes accessed per row activation
system.mem_ctrls.bytesPerActivate::total      1515438                       # Bytes accessed per row activation
system.mem_ctrls.rdPerTurnAround::samples        48943                       # Reads before turning the bus around for writes
system.mem_ctrls.rdPerTurnAround::mean      34.683530                       # Reads before turning the bus around for writes
system.mem_ctrls.rdPerTurnAround::stdev    106.185264                       # Reads before turning the bus around for writes
system.mem_ctrls.rdPerTurnAround::0-1023        48940     99.99%     99.99% # Reads before turning the bus around for writes
system.mem_ctrls.rdPerTurnAround::1024-2047            2      0.00%    100.00% # Reads before turning the bus around for writes
system.mem_ctrls.rdPerTurnAround::22528-23551            1      0.00%    100.00% # Reads before turning the bus around for writes
system.mem_ctrls.rdPerTurnAround::total         48943                       # Reads before turning the bus around for writes
system.mem_ctrls.wrPerTurnAround::samples        48943                       # Writes before turning the bus around for reads
system.mem_ctrls.wrPerTurnAround::mean      17.193061                       # Writes before turning the bus around for reads
system.mem_ctrls.wrPerTurnAround::gmean     17.159469                       # Writes before turning the bus around for reads
system.mem_ctrls.wrPerTurnAround::stdev      1.075230                       # Writes before turning the bus around for reads
system.mem_ctrls.wrPerTurnAround::16            20600     42.09%     42.09% # Writes before turning the bus around for reads
system.mem_ctrls.wrPerTurnAround::17             1509      3.08%     45.17% # Writes before turning the bus around for reads
system.mem_ctrls.wrPerTurnAround::18            24110     49.26%     94.43% # Writes before turning the bus around for reads
system.mem_ctrls.wrPerTurnAround::19             2347      4.80%     99.23% # Writes before turning the bus around for reads
system.mem_ctrls.wrPerTurnAround::20              300      0.61%     99.84% # Writes before turning the bus around for reads
system.mem_ctrls.wrPerTurnAround::21               55      0.11%     99.96% # Writes before turning the bus around for reads
system.mem_ctrls.wrPerTurnAround::22               12      0.02%     99.98% # Writes before turning the bus around for reads
system.mem_ctrls.wrPerTurnAround::23                7      0.01%     99.99% # Writes before turning the bus around for reads
system.mem_ctrls.wrPerTurnAround::24                1      0.00%    100.00% # Writes before turning the bus around for reads
system.mem_ctrls.wrPerTurnAround::25                2      0.00%    100.00% # Writes before turning the bus around for reads
system.mem_ctrls.wrPerTurnAround::total         48943                       # Writes before turning the bus around for reads
system.mem_ctrls.totQLat                  22819689490                       # Total ticks spent queuing
system.mem_ctrls.totMemAccLat             54360789490                       # Total ticks spent from burst creation until serviced by the DRAM
system.mem_ctrls.totBusLat                 8410960000                       # Total ticks spent in databus transfers
system.mem_ctrls.avgQLat                     13565.45                       # Average queueing delay per DRAM burst
system.mem_ctrls.avgBusLat                    5000.00                       # Average bus latency per DRAM burst
system.mem_ctrls.avgMemAccLat                32315.45                       # Average memory access latency per DRAM burst
system.mem_ctrls.avgRdBW                        27.55                       # Average DRAM read bandwidth in MiByte/s
system.mem_ctrls.avgWrBW                        13.78                       # Average achieved write bandwidth in MiByte/s
system.mem_ctrls.avgRdBWSys                     27.66                       # Average system read bandwidth in MiByte/s
system.mem_ctrls.avgWrBWSys                     13.78                       # Average system write bandwidth in MiByte/s
system.mem_ctrls.peakBW                      12800.00                       # Theoretical peak bandwidth in MiByte/s
system.mem_ctrls.busUtil                         0.32                       # Data bus utilization in percentage
system.mem_ctrls.busUtilRead                     0.22                       # Data bus utilization in percentage for reads
system.mem_ctrls.busUtilWrite                    0.11                       # Data bus utilization in percentage for writes
system.mem_ctrls.avgRdQLen                       1.00                       # Average read queue length when enqueuing
system.mem_ctrls.avgWrQLen                      24.63                       # Average write queue length when enqueuing
system.mem_ctrls.readRowHits                   832810                       # Number of row buffer hits during reads
system.mem_ctrls.writeRowHits                  175424                       # Number of row buffer hits during writes
system.mem_ctrls.readRowHitRate                 49.51                       # Row buffer hit rate for reads
system.mem_ctrls.writeRowHitRate                20.85                       # Row buffer hit rate for writes
system.mem_ctrls.avgGap                    1544387.33                       # Average gap between requests
system.mem_ctrls.pageHitRate                    39.95                       # Row buffer hit rate, read and write combined
system.mem_ctrls_0.actEnergy               5661230400                       # Energy for activate commands per rank (pJ)
system.mem_ctrls_0.preEnergy               3088965000                       # Energy for precharge commands per rank (pJ)
system.mem_ctrls_0.readEnergy              6543771000                       # Energy for read commands per rank (pJ)
system.mem_ctrls_0.writeEnergy             2701252800                       # Energy for write commands per rank (pJ)
system.mem_ctrls_0.refreshEnergy         255447145200                       # Energy for refresh commands per rank (pJ)
system.mem_ctrls_0.actBackEnergy         484933789665                       # Energy for active background per rank (pJ)
system.mem_ctrls_0.preBackEnergy         1921216305000                       # Energy for precharge background per rank (pJ)
system.mem_ctrls_0.totalEnergy           2679592459065                       # Total energy per rank (pJ)
system.mem_ctrls_0.averagePower            685.143464                       # Core power per rank (mW)
system.mem_ctrls_0.memoryStateTime::IDLE 3192071075250                       # Time in different power states
system.mem_ctrls_0.memoryStateTime::REF  130482300000                       # Time in different power states
system.mem_ctrls_0.memoryStateTime::PRE_PDN            0                       # Time in different power states
system.mem_ctrls_0.memoryStateTime::ACT  585015118500                       # Time in different power states
system.mem_ctrls_0.memoryStateTime::ACT_PDN            0                       # Time in different power states
system.mem_ctrls_1.actEnergy               5824904400                       # Energy for activate commands per rank (pJ)
system.mem_ctrls_1.preEnergy               3178271250                       # Energy for precharge commands per rank (pJ)
system.mem_ctrls_1.readEnergy              6696892800                       # Energy for read commands per rank (pJ)
system.mem_ctrls_1.writeEnergy             2751537600                       # Energy for write commands per rank (pJ)
system.mem_ctrls_1.refreshEnergy         255447145200                       # Energy for refresh commands per rank (pJ)
system.mem_ctrls_1.actBackEnergy         494987437125                       # Energy for active background per rank (pJ)
system.mem_ctrls_1.preBackEnergy         1912397316000                       # Energy for precharge background per rank (pJ)
system.mem_ctrls_1.totalEnergy           2681283504375                       # Total energy per rank (pJ)
system.mem_ctrls_1.averagePower            685.575846                       # Core power per rank (mW)
system.mem_ctrls_1.memoryStateTime::IDLE 3177436958750                       # Time in different power states
system.mem_ctrls_1.memoryStateTime::REF  130482300000                       # Time in different power states
system.mem_ctrls_1.memoryStateTime::PRE_PDN            0                       # Time in different power states
system.mem_ctrls_1.memoryStateTime::ACT  599649248750                       # Time in different power states
system.mem_ctrls_1.memoryStateTime::ACT_PDN            0                       # Time in different power states
system.cpu_voltage_domain.voltage                   1                       # Voltage in Volts
system.cpu_clk_domain.clock                       500                       # Clock period in ticks
system.cpu0.apic_clk_domain.clock                8000                       # Clock period in ticks
system.cpu0.numCycles                      7818081908                       # number of cpu cycles simulated
system.cpu0.numWorkItemsStarted                     0                       # number of work items this cpu started
system.cpu0.numWorkItemsCompleted                   0                       # number of work items this cpu completed
system.cpu0.kern.inst.arm                           0                       # number of arm instructions executed
system.cpu0.kern.inst.quiesce                       0                       # number of quiesce instructions executed
system.cpu0.committedInsts                    3211696                       # Number of instructions committed
system.cpu0.committedOps                      6977094                       # Number of ops (including micro ops) committed
system.cpu0.num_int_alu_accesses              6827200                       # Number of integer alu accesses
system.cpu0.num_fp_alu_accesses                    39                       # Number of float alu accesses
system.cpu0.num_func_calls                     205028                       # number of times a function call or return occured
system.cpu0.num_conditional_control_insts       464965                       # number of instructions that are conditional controls
system.cpu0.num_int_insts                     6827200                       # number of integer instructions
system.cpu0.num_fp_insts                           39                       # number of float instructions
system.cpu0.num_int_register_reads           13871722                       # number of times the integer registers were read
system.cpu0.num_int_register_writes           5653563                       # number of times the integer registers were written
system.cpu0.num_fp_register_reads                  63                       # number of times the floating registers were read
system.cpu0.num_fp_register_writes                 31                       # number of times the floating registers were written
system.cpu0.num_cc_register_reads             3864282                       # number of times the CC registers were read
system.cpu0.num_cc_register_writes            2093918                       # number of times the CC registers were written
system.cpu0.num_mem_refs                      1645825                       # number of memory refs
system.cpu0.num_load_insts                    1014819                       # Number of load instructions
system.cpu0.num_store_insts                    631006                       # Number of store instructions
system.cpu0.num_idle_cycles              7804369940.197370                       # Number of idle cycles
system.cpu0.num_busy_cycles              13711967.802630                       # Number of busy cycles
system.cpu0.not_idle_fraction                0.001754                       # Percentage of non-idle cycles
system.cpu0.idle_fraction                    0.998246                       # Percentage of idle cycles
system.cpu0.Branches                           732367                       # Number of branches fetched
system.cpu0.op_class::No_OpClass               120743      1.73%      1.73% # Class of executed instruction
system.cpu0.op_class::IntAlu                  5156723     73.91%     75.64% # Class of executed instruction
system.cpu0.op_class::IntMult                   13294      0.19%     75.83% # Class of executed instruction
system.cpu0.op_class::IntDiv                    40501      0.58%     76.41% # Class of executed instruction
system.cpu0.op_class::FloatAdd                     30      0.00%     76.41% # Class of executed instruction
system.cpu0.op_class::FloatCmp                      0      0.00%     76.41% # Class of executed instruction
system.cpu0.op_class::FloatCvt                      0      0.00%     76.41% # Class of executed instruction
system.cpu0.op_class::FloatMult                     0      0.00%     76.41% # Class of executed instruction
system.cpu0.op_class::FloatDiv                      0      0.00%     76.41% # Class of executed instruction
system.cpu0.op_class::FloatSqrt                     0      0.00%     76.41% # Class of executed instruction
system.cpu0.op_class::SimdAdd                       0      0.00%     76.41% # Class of executed instruction
system.cpu0.op_class::SimdAddAcc                    0      0.00%     76.41% # Class of executed instruction
system.cpu0.op_class::SimdAlu                       0      0.00%     76.41% # Class of executed instruction
system.cpu0.op_class::SimdCmp                       0      0.00%     76.41% # Class of executed instruction
system.cpu0.op_class::SimdCvt                       0      0.00%     76.41% # Class of executed instruction
system.cpu0.op_class::SimdMisc                      0      0.00%     76.41% # Class of executed instruction
system.cpu0.op_class::SimdMult                      0      0.00%     76.41% # Class of executed instruction
system.cpu0.op_class::SimdMultAcc                   0      0.00%     76.41% # Class of executed instruction
system.cpu0.op_class::SimdShift                     0      0.00%     76.41% # Class of executed instruction
system.cpu0.op_class::SimdShiftAcc                  0      0.00%     76.41% # Class of executed instruction
system.cpu0.op_class::SimdSqrt                      0      0.00%     76.41% # Class of executed instruction
system.cpu0.op_class::SimdFloatAdd                  0      0.00%     76.41% # Class of executed instruction
system.cpu0.op_class::SimdFloatAlu                  0      0.00%     76.41% # Class of executed instruction
system.cpu0.op_class::SimdFloatCmp                  0      0.00%     76.41% # Class of executed instruction
system.cpu0.op_class::SimdFloatCvt                  0      0.00%     76.41% # Class of executed instruction
system.cpu0.op_class::SimdFloatDiv                  0      0.00%     76.41% # Class of executed instruction
system.cpu0.op_class::SimdFloatMisc                 0      0.00%     76.41% # Class of executed instruction
system.cpu0.op_class::SimdFloatMult                 0      0.00%     76.41% # Class of executed instruction
system.cpu0.op_class::SimdFloatMultAcc              0      0.00%     76.41% # Class of executed instruction
system.cpu0.op_class::SimdFloatSqrt                 0      0.00%     76.41% # Class of executed instruction
system.cpu0.op_class::MemRead                 1014819     14.54%     90.96% # Class of executed instruction
system.cpu0.op_class::MemWrite                 631006      9.04%    100.00% # Class of executed instruction
system.cpu0.op_class::IprAccess                     0      0.00%    100.00% # Class of executed instruction
system.cpu0.op_class::InstPrefetch                  0      0.00%    100.00% # Class of executed instruction
system.cpu0.op_class::total                   6977116                       # Class of executed instruction
system.cpu1.apic_clk_domain.clock                8000                       # Clock period in ticks
system.cpu1.numCycles                      7815189792                       # number of cpu cycles simulated
system.cpu1.numWorkItemsStarted                     0                       # number of work items this cpu started
system.cpu1.numWorkItemsCompleted                   0                       # number of work items this cpu completed
system.cpu1.kern.inst.arm                           0                       # number of arm instructions executed
system.cpu1.kern.inst.quiesce                       0                       # number of quiesce instructions executed
system.cpu1.committedInsts                 2239523806                       # Number of instructions committed
system.cpu1.committedOps                   3131999839                       # Number of ops (including micro ops) committed
system.cpu1.num_int_alu_accesses           1365043002                       # Number of integer alu accesses
system.cpu1.num_fp_alu_accesses            2127680380                       # Number of float alu accesses
system.cpu1.num_func_calls                    4837710                       # number of times a function call or return occured
system.cpu1.num_conditional_control_insts    125348888                       # number of instructions that are conditional controls
system.cpu1.num_int_insts                  1365043002                       # number of integer instructions
system.cpu1.num_fp_insts                   2127680380                       # number of float instructions
system.cpu1.num_int_register_reads         2745606719                       # number of times the integer registers were read
system.cpu1.num_int_register_writes         828511220                       # number of times the integer registers were written
system.cpu1.num_fp_register_reads          4601234200                       # number of times the floating registers were read
system.cpu1.num_fp_register_writes         2077617928                       # number of times the floating registers were written
system.cpu1.num_cc_register_reads           735929953                       # number of times the CC registers were read
system.cpu1.num_cc_register_writes          430162438                       # number of times the CC registers were written
system.cpu1.num_mem_refs                    408348167                       # number of memory refs
system.cpu1.num_load_insts                  353620983                       # Number of load instructions
system.cpu1.num_store_insts                  54727184                       # Number of store instructions
system.cpu1.num_idle_cycles              4202304.321326                       # Number of idle cycles
system.cpu1.num_busy_cycles              7810987487.678674                       # Number of busy cycles
system.cpu1.not_idle_fraction                0.999462                       # Percentage of non-idle cycles
system.cpu1.idle_fraction                    0.000538                       # Percentage of idle cycles
system.cpu1.Branches                        163315812                       # Number of branches fetched
system.cpu1.op_class::No_OpClass              2281794      0.07%      0.07% # Class of executed instruction
system.cpu1.op_class::IntAlu               1676701957     53.53%     53.61% # Class of executed instruction
system.cpu1.op_class::IntMult                   81818      0.00%     53.61% # Class of executed instruction
system.cpu1.op_class::IntDiv                    99025      0.00%     53.61% # Class of executed instruction
system.cpu1.op_class::FloatAdd             1044495741     33.35%     86.96% # Class of executed instruction
system.cpu1.op_class::FloatCmp                      0      0.00%     86.96% # Class of executed instruction
system.cpu1.op_class::FloatCvt                      0      0.00%     86.96% # Class of executed instruction
system.cpu1.op_class::FloatMult                     0      0.00%     86.96% # Class of executed instruction
system.cpu1.op_class::FloatDiv                      0      0.00%     86.96% # Class of executed instruction
system.cpu1.op_class::FloatSqrt                     0      0.00%     86.96% # Class of executed instruction
system.cpu1.op_class::SimdAdd                       0      0.00%     86.96% # Class of executed instruction
system.cpu1.op_class::SimdAddAcc                    0      0.00%     86.96% # Class of executed instruction
system.cpu1.op_class::SimdAlu                       0      0.00%     86.96% # Class of executed instruction
system.cpu1.op_class::SimdCmp                       0      0.00%     86.96% # Class of executed instruction
system.cpu1.op_class::SimdCvt                       0      0.00%     86.96% # Class of executed instruction
system.cpu1.op_class::SimdMisc                      0      0.00%     86.96% # Class of executed instruction
system.cpu1.op_class::SimdMult                      0      0.00%     86.96% # Class of executed instruction
system.cpu1.op_class::SimdMultAcc                   0      0.00%     86.96% # Class of executed instruction
system.cpu1.op_class::SimdShift                     0      0.00%     86.96% # Class of executed instruction
system.cpu1.op_class::SimdShiftAcc                  0      0.00%     86.96% # Class of executed instruction
system.cpu1.op_class::SimdSqrt                      0      0.00%     86.96% # Class of executed instruction
system.cpu1.op_class::SimdFloatAdd                  0      0.00%     86.96% # Class of executed instruction
system.cpu1.op_class::SimdFloatAlu                  0      0.00%     86.96% # Class of executed instruction
system.cpu1.op_class::SimdFloatCmp                  0      0.00%     86.96% # Class of executed instruction
system.cpu1.op_class::SimdFloatCvt                  0      0.00%     86.96% # Class of executed instruction
system.cpu1.op_class::SimdFloatDiv                  0      0.00%     86.96% # Class of executed instruction
system.cpu1.op_class::SimdFloatMisc                 0      0.00%     86.96% # Class of executed instruction
system.cpu1.op_class::SimdFloatMult                 0      0.00%     86.96% # Class of executed instruction
system.cpu1.op_class::SimdFloatMultAcc              0      0.00%     86.96% # Class of executed instruction
system.cpu1.op_class::SimdFloatSqrt                 0      0.00%     86.96% # Class of executed instruction
system.cpu1.op_class::MemRead               353620983     11.29%     98.25% # Class of executed instruction
system.cpu1.op_class::MemWrite               54727184      1.75%    100.00% # Class of executed instruction
system.cpu1.op_class::IprAccess                     0      0.00%    100.00% # Class of executed instruction
system.cpu1.op_class::InstPrefetch                  0      0.00%    100.00% # Class of executed instruction
system.cpu1.op_class::total                3132008502                       # Class of executed instruction
system.cpu2.apic_clk_domain.clock                8000                       # Clock period in ticks
system.cpu2.numCycles                      7811794166                       # number of cpu cycles simulated
system.cpu2.numWorkItemsStarted                     0                       # number of work items this cpu started
system.cpu2.numWorkItemsCompleted                   0                       # number of work items this cpu completed
system.cpu2.kern.inst.arm                           0                       # number of arm instructions executed
system.cpu2.kern.inst.quiesce                       0                       # number of quiesce instructions executed
system.cpu2.committedInsts                    2733835                       # Number of instructions committed
system.cpu2.committedOps                      5905634                       # Number of ops (including micro ops) committed
system.cpu2.num_int_alu_accesses              5775298                       # Number of integer alu accesses
system.cpu2.num_fp_alu_accesses                     0                       # Number of float alu accesses
system.cpu2.num_func_calls                     163108                       # number of times a function call or return occured
system.cpu2.num_conditional_control_insts       414334                       # number of instructions that are conditional controls
system.cpu2.num_int_insts                     5775298                       # number of integer instructions
system.cpu2.num_fp_insts                            0                       # number of float instructions
system.cpu2.num_int_register_reads           11739346                       # number of times the integer registers were read
system.cpu2.num_int_register_writes           4794299                       # number of times the integer registers were written
system.cpu2.num_fp_register_reads                   0                       # number of times the floating registers were read
system.cpu2.num_fp_register_writes                  0                       # number of times the floating registers were written
system.cpu2.num_cc_register_reads             3320555                       # number of times the CC registers were read
system.cpu2.num_cc_register_writes            1743644                       # number of times the CC registers were written
system.cpu2.num_mem_refs                      1406723                       # number of memory refs
system.cpu2.num_load_insts                     874418                       # Number of load instructions
system.cpu2.num_store_insts                    532305                       # Number of store instructions
system.cpu2.num_idle_cycles              7800238926.908792                       # Number of idle cycles
system.cpu2.num_busy_cycles              11555239.091208                       # Number of busy cycles
system.cpu2.not_idle_fraction                0.001479                       # Percentage of non-idle cycles
system.cpu2.idle_fraction                    0.998521                       # Percentage of idle cycles
system.cpu2.Branches                           630525                       # Number of branches fetched
system.cpu2.op_class::No_OpClass               111484      1.89%      1.89% # Class of executed instruction
system.cpu2.op_class::IntAlu                  4335729     73.42%     75.30% # Class of executed instruction
system.cpu2.op_class::IntMult                   12025      0.20%     75.51% # Class of executed instruction
system.cpu2.op_class::IntDiv                    39676      0.67%     76.18% # Class of executed instruction
system.cpu2.op_class::FloatAdd                      0      0.00%     76.18% # Class of executed instruction
system.cpu2.op_class::FloatCmp                      0      0.00%     76.18% # Class of executed instruction
system.cpu2.op_class::FloatCvt                      0      0.00%     76.18% # Class of executed instruction
system.cpu2.op_class::FloatMult                     0      0.00%     76.18% # Class of executed instruction
system.cpu2.op_class::FloatDiv                      0      0.00%     76.18% # Class of executed instruction
system.cpu2.op_class::FloatSqrt                     0      0.00%     76.18% # Class of executed instruction
system.cpu2.op_class::SimdAdd                       0      0.00%     76.18% # Class of executed instruction
system.cpu2.op_class::SimdAddAcc                    0      0.00%     76.18% # Class of executed instruction
system.cpu2.op_class::SimdAlu                       0      0.00%     76.18% # Class of executed instruction
system.cpu2.op_class::SimdCmp                       0      0.00%     76.18% # Class of executed instruction
system.cpu2.op_class::SimdCvt                       0      0.00%     76.18% # Class of executed instruction
system.cpu2.op_class::SimdMisc                      0      0.00%     76.18% # Class of executed instruction
system.cpu2.op_class::SimdMult                      0      0.00%     76.18% # Class of executed instruction
system.cpu2.op_class::SimdMultAcc                   0      0.00%     76.18% # Class of executed instruction
system.cpu2.op_class::SimdShift                     0      0.00%     76.18% # Class of executed instruction
system.cpu2.op_class::SimdShiftAcc                  0      0.00%     76.18% # Class of executed instruction
system.cpu2.op_class::SimdSqrt                      0      0.00%     76.18% # Class of executed instruction
system.cpu2.op_class::SimdFloatAdd                  0      0.00%     76.18% # Class of executed instruction
system.cpu2.op_class::SimdFloatAlu                  0      0.00%     76.18% # Class of executed instruction
system.cpu2.op_class::SimdFloatCmp                  0      0.00%     76.18% # Class of executed instruction
system.cpu2.op_class::SimdFloatCvt                  0      0.00%     76.18% # Class of executed instruction
system.cpu2.op_class::SimdFloatDiv                  0      0.00%     76.18% # Class of executed instruction
system.cpu2.op_class::SimdFloatMisc                 0      0.00%     76.18% # Class of executed instruction
system.cpu2.op_class::SimdFloatMult                 0      0.00%     76.18% # Class of executed instruction
system.cpu2.op_class::SimdFloatMultAcc              0      0.00%     76.18% # Class of executed instruction
system.cpu2.op_class::SimdFloatSqrt                 0      0.00%     76.18% # Class of executed instruction
system.cpu2.op_class::MemRead                  874418     14.81%     90.99% # Class of executed instruction
system.cpu2.op_class::MemWrite                 532305      9.01%    100.00% # Class of executed instruction
system.cpu2.op_class::IprAccess                     0      0.00%    100.00% # Class of executed instruction
system.cpu2.op_class::InstPrefetch                  0      0.00%    100.00% # Class of executed instruction
system.cpu2.op_class::total                   5905637                       # Class of executed instruction
system.cpu3.apic_clk_domain.clock                8000                       # Clock period in ticks
system.cpu3.numCycles                      7812850906                       # number of cpu cycles simulated
system.cpu3.numWorkItemsStarted                     0                       # number of work items this cpu started
system.cpu3.numWorkItemsCompleted                   0                       # number of work items this cpu completed
system.cpu3.kern.inst.arm                           0                       # number of arm instructions executed
system.cpu3.kern.inst.quiesce                       0                       # number of quiesce instructions executed
system.cpu3.committedInsts                    3725772                       # Number of instructions committed
system.cpu3.committedOps                      7764823                       # Number of ops (including micro ops) committed
system.cpu3.num_int_alu_accesses              7607798                       # Number of integer alu accesses
system.cpu3.num_fp_alu_accesses                  1814                       # Number of float alu accesses
system.cpu3.num_func_calls                     200100                       # number of times a function call or return occured
system.cpu3.num_conditional_control_insts       581332                       # number of instructions that are conditional controls
system.cpu3.num_int_insts                     7607798                       # number of integer instructions
system.cpu3.num_fp_insts                         1814                       # number of float instructions
system.cpu3.num_int_register_reads           15426512                       # number of times the integer registers were read
system.cpu3.num_int_register_writes           6278099                       # number of times the integer registers were written
system.cpu3.num_fp_register_reads                3048                       # number of times the floating registers were read
system.cpu3.num_fp_register_writes               1440                       # number of times the floating registers were written
system.cpu3.num_cc_register_reads             4482981                       # number of times the CC registers were read
system.cpu3.num_cc_register_writes            2410205                       # number of times the CC registers were written
system.cpu3.num_mem_refs                      1817660                       # number of memory refs
system.cpu3.num_load_insts                    1133578                       # Number of load instructions
system.cpu3.num_store_insts                    684082                       # Number of store instructions
system.cpu3.num_idle_cycles              7797176963.542278                       # Number of idle cycles
system.cpu3.num_busy_cycles              15673942.457722                       # Number of busy cycles
system.cpu3.not_idle_fraction                0.002006                       # Percentage of non-idle cycles
system.cpu3.idle_fraction                    0.997994                       # Percentage of idle cycles
system.cpu3.Branches                           844957                       # Number of branches fetched
system.cpu3.op_class::No_OpClass               122397      1.58%      1.58% # Class of executed instruction
system.cpu3.op_class::IntAlu                  5766674     74.27%     75.84% # Class of executed instruction
system.cpu3.op_class::IntMult                   13310      0.17%     76.01% # Class of executed instruction
system.cpu3.op_class::IntDiv                    43504      0.56%     76.57% # Class of executed instruction
system.cpu3.op_class::FloatAdd                   1368      0.02%     76.59% # Class of executed instruction
system.cpu3.op_class::FloatCmp                      0      0.00%     76.59% # Class of executed instruction
system.cpu3.op_class::FloatCvt                      0      0.00%     76.59% # Class of executed instruction
system.cpu3.op_class::FloatMult                     0      0.00%     76.59% # Class of executed instruction
system.cpu3.op_class::FloatDiv                      0      0.00%     76.59% # Class of executed instruction
system.cpu3.op_class::FloatSqrt                     0      0.00%     76.59% # Class of executed instruction
system.cpu3.op_class::SimdAdd                       0      0.00%     76.59% # Class of executed instruction
system.cpu3.op_class::SimdAddAcc                    0      0.00%     76.59% # Class of executed instruction
system.cpu3.op_class::SimdAlu                       0      0.00%     76.59% # Class of executed instruction
system.cpu3.op_class::SimdCmp                       0      0.00%     76.59% # Class of executed instruction
system.cpu3.op_class::SimdCvt                       0      0.00%     76.59% # Class of executed instruction
system.cpu3.op_class::SimdMisc                      0      0.00%     76.59% # Class of executed instruction
system.cpu3.op_class::SimdMult                      0      0.00%     76.59% # Class of executed instruction
system.cpu3.op_class::SimdMultAcc                   0      0.00%     76.59% # Class of executed instruction
system.cpu3.op_class::SimdShift                     0      0.00%     76.59% # Class of executed instruction
system.cpu3.op_class::SimdShiftAcc                  0      0.00%     76.59% # Class of executed instruction
system.cpu3.op_class::SimdSqrt                      0      0.00%     76.59% # Class of executed instruction
system.cpu3.op_class::SimdFloatAdd                  0      0.00%     76.59% # Class of executed instruction
system.cpu3.op_class::SimdFloatAlu                  0      0.00%     76.59% # Class of executed instruction
system.cpu3.op_class::SimdFloatCmp                  0      0.00%     76.59% # Class of executed instruction
system.cpu3.op_class::SimdFloatCvt                  0      0.00%     76.59% # Class of executed instruction
system.cpu3.op_class::SimdFloatDiv                  0      0.00%     76.59% # Class of executed instruction
system.cpu3.op_class::SimdFloatMisc                 0      0.00%     76.59% # Class of executed instruction
system.cpu3.op_class::SimdFloatMult                 0      0.00%     76.59% # Class of executed instruction
system.cpu3.op_class::SimdFloatMultAcc              0      0.00%     76.59% # Class of executed instruction
system.cpu3.op_class::SimdFloatSqrt                 0      0.00%     76.59% # Class of executed instruction
system.cpu3.op_class::MemRead                 1133578     14.60%     91.19% # Class of executed instruction
system.cpu3.op_class::MemWrite                 684082      8.81%    100.00% # Class of executed instruction
system.cpu3.op_class::IprAccess                     0      0.00%    100.00% # Class of executed instruction
system.cpu3.op_class::InstPrefetch                  0      0.00%    100.00% # Class of executed instruction
system.cpu3.op_class::total                   7764913                       # Class of executed instruction
system.iobus.trans_dist::ReadReq                  201                       # Transaction distribution
system.iobus.trans_dist::ReadResp                 201                       # Transaction distribution
system.iobus.trans_dist::WriteReq                4051                       # Transaction distribution
system.iobus.trans_dist::WriteResp               4051                       # Transaction distribution
system.iobus.trans_dist::MessageReq                20                       # Transaction distribution
system.iobus.trans_dist::MessageResp               20                       # Transaction distribution
system.iobus.pkt_count_system.pc.south_bridge.io_apic.int_master::system.ruby.l1_cntrl0.sequencer.pio-slave-port            4                       # Packet count per connected master and slave (bytes)
system.iobus.pkt_count_system.pc.south_bridge.io_apic.int_master::system.ruby.l1_cntrl1.sequencer.pio-slave-port            6                       # Packet count per connected master and slave (bytes)
system.iobus.pkt_count_system.pc.south_bridge.io_apic.int_master::system.ruby.l1_cntrl2.sequencer.pio-slave-port            6                       # Packet count per connected master and slave (bytes)
system.iobus.pkt_count_system.pc.south_bridge.io_apic.int_master::system.ruby.l1_cntrl3.sequencer.pio-slave-port            4                       # Packet count per connected master and slave (bytes)
system.iobus.pkt_count_system.pc.south_bridge.io_apic.int_master::total           20                       # Packet count per connected master and slave (bytes)
system.iobus.pkt_count_system.ruby.l1_cntrl0.sequencer.mem-master-port::system.pc.south_bridge.ide.pio           46                       # Packet count per connected master and slave (bytes)
system.iobus.pkt_count_system.ruby.l1_cntrl0.sequencer.mem-master-port::system.pc.south_bridge.io_apic.pio            6                       # Packet count per connected master and slave (bytes)
system.iobus.pkt_count_system.ruby.l1_cntrl0.sequencer.mem-master-port::system.pc.com_1.pio           22                       # Packet count per connected master and slave (bytes)
system.iobus.pkt_count_system.ruby.l1_cntrl0.sequencer.mem-master-port::system.ruby.l1_cntrl0.sequencer.pio-slave-port         1970                       # Packet count per connected master and slave (bytes)
system.iobus.pkt_count_system.ruby.l1_cntrl0.sequencer.mem-master-port::system.ruby.l1_cntrl1.sequencer.pio-slave-port            2                       # Packet count per connected master and slave (bytes)
system.iobus.pkt_count_system.ruby.l1_cntrl0.sequencer.mem-master-port::total         2046                       # Packet count per connected master and slave (bytes)
system.iobus.pkt_count_system.ruby.l1_cntrl1.sequencer.mem-master-port::system.pc.south_bridge.ide.pio           46                       # Packet count per connected master and slave (bytes)
system.iobus.pkt_count_system.ruby.l1_cntrl1.sequencer.mem-master-port::system.pc.south_bridge.io_apic.pio           14                       # Packet count per connected master and slave (bytes)
system.iobus.pkt_count_system.ruby.l1_cntrl1.sequencer.mem-master-port::system.pc.com_1.pio          254                       # Packet count per connected master and slave (bytes)
system.iobus.pkt_count_system.ruby.l1_cntrl1.sequencer.mem-master-port::system.ruby.l1_cntrl0.sequencer.pio-slave-port            4                       # Packet count per connected master and slave (bytes)
system.iobus.pkt_count_system.ruby.l1_cntrl1.sequencer.mem-master-port::system.ruby.l1_cntrl1.sequencer.pio-slave-port         1992                       # Packet count per connected master and slave (bytes)
system.iobus.pkt_count_system.ruby.l1_cntrl1.sequencer.mem-master-port::system.ruby.l1_cntrl2.sequencer.pio-slave-port            6                       # Packet count per connected master and slave (bytes)
system.iobus.pkt_count_system.ruby.l1_cntrl1.sequencer.mem-master-port::total         2316                       # Packet count per connected master and slave (bytes)
system.iobus.pkt_count_system.ruby.l1_cntrl2.sequencer.mem-master-port::system.pc.south_bridge.io_apic.pio           22                       # Packet count per connected master and slave (bytes)
system.iobus.pkt_count_system.ruby.l1_cntrl2.sequencer.mem-master-port::system.pc.com_1.pio          164                       # Packet count per connected master and slave (bytes)
system.iobus.pkt_count_system.ruby.l1_cntrl2.sequencer.mem-master-port::system.ruby.l1_cntrl2.sequencer.pio-slave-port         1974                       # Packet count per connected master and slave (bytes)
system.iobus.pkt_count_system.ruby.l1_cntrl2.sequencer.mem-master-port::system.ruby.l1_cntrl3.sequencer.pio-slave-port            2                       # Packet count per connected master and slave (bytes)
system.iobus.pkt_count_system.ruby.l1_cntrl2.sequencer.mem-master-port::total         2162                       # Packet count per connected master and slave (bytes)
system.iobus.pkt_count_system.ruby.l1_cntrl3.sequencer.mem-master-port::system.pc.south_bridge.io_apic.pio           16                       # Packet count per connected master and slave (bytes)
system.iobus.pkt_count_system.ruby.l1_cntrl3.sequencer.mem-master-port::system.ruby.l1_cntrl0.sequencer.pio-slave-port            2                       # Packet count per connected master and slave (bytes)
system.iobus.pkt_count_system.ruby.l1_cntrl3.sequencer.mem-master-port::system.ruby.l1_cntrl1.sequencer.pio-slave-port            2                       # Packet count per connected master and slave (bytes)
system.iobus.pkt_count_system.ruby.l1_cntrl3.sequencer.mem-master-port::system.ruby.l1_cntrl2.sequencer.pio-slave-port            2                       # Packet count per connected master and slave (bytes)
system.iobus.pkt_count_system.ruby.l1_cntrl3.sequencer.mem-master-port::system.ruby.l1_cntrl3.sequencer.pio-slave-port         1978                       # Packet count per connected master and slave (bytes)
system.iobus.pkt_count_system.ruby.l1_cntrl3.sequencer.mem-master-port::total         2000                       # Packet count per connected master and slave (bytes)
system.iobus.pkt_count::total                    8544                       # Packet count per connected master and slave (bytes)
system.iobus.pkt_size_system.pc.south_bridge.io_apic.int_master::system.ruby.l1_cntrl0.sequencer.pio-slave-port            8                       # Cumulative packet size per connected master and slave (bytes)
system.iobus.pkt_size_system.pc.south_bridge.io_apic.int_master::system.ruby.l1_cntrl1.sequencer.pio-slave-port           12                       # Cumulative packet size per connected master and slave (bytes)
system.iobus.pkt_size_system.pc.south_bridge.io_apic.int_master::system.ruby.l1_cntrl2.sequencer.pio-slave-port           12                       # Cumulative packet size per connected master and slave (bytes)
system.iobus.pkt_size_system.pc.south_bridge.io_apic.int_master::system.ruby.l1_cntrl3.sequencer.pio-slave-port            8                       # Cumulative packet size per connected master and slave (bytes)
system.iobus.pkt_size_system.pc.south_bridge.io_apic.int_master::total           40                       # Cumulative packet size per connected master and slave (bytes)
system.iobus.pkt_size_system.ruby.l1_cntrl0.sequencer.mem-master-port::system.pc.south_bridge.ide.pio           26                       # Cumulative packet size per connected master and slave (bytes)
system.iobus.pkt_size_system.ruby.l1_cntrl0.sequencer.mem-master-port::system.pc.south_bridge.io_apic.pio           12                       # Cumulative packet size per connected master and slave (bytes)
system.iobus.pkt_size_system.ruby.l1_cntrl0.sequencer.mem-master-port::system.pc.com_1.pio           11                       # Cumulative packet size per connected master and slave (bytes)
system.iobus.pkt_size_system.ruby.l1_cntrl0.sequencer.mem-master-port::system.ruby.l1_cntrl0.sequencer.pio-slave-port         3940                       # Cumulative packet size per connected master and slave (bytes)
system.iobus.pkt_size_system.ruby.l1_cntrl0.sequencer.mem-master-port::system.ruby.l1_cntrl1.sequencer.pio-slave-port            4                       # Cumulative packet size per connected master and slave (bytes)
system.iobus.pkt_size_system.ruby.l1_cntrl0.sequencer.mem-master-port::total         3993                       # Cumulative packet size per connected master and slave (bytes)
system.iobus.pkt_size_system.ruby.l1_cntrl1.sequencer.mem-master-port::system.pc.south_bridge.ide.pio           26                       # Cumulative packet size per connected master and slave (bytes)
system.iobus.pkt_size_system.ruby.l1_cntrl1.sequencer.mem-master-port::system.pc.south_bridge.io_apic.pio           28                       # Cumulative packet size per connected master and slave (bytes)
system.iobus.pkt_size_system.ruby.l1_cntrl1.sequencer.mem-master-port::system.pc.com_1.pio          127                       # Cumulative packet size per connected master and slave (bytes)
system.iobus.pkt_size_system.ruby.l1_cntrl1.sequencer.mem-master-port::system.ruby.l1_cntrl0.sequencer.pio-slave-port            8                       # Cumulative packet size per connected master and slave (bytes)
system.iobus.pkt_size_system.ruby.l1_cntrl1.sequencer.mem-master-port::system.ruby.l1_cntrl1.sequencer.pio-slave-port         3984                       # Cumulative packet size per connected master and slave (bytes)
system.iobus.pkt_size_system.ruby.l1_cntrl1.sequencer.mem-master-port::system.ruby.l1_cntrl2.sequencer.pio-slave-port           12                       # Cumulative packet size per connected master and slave (bytes)
system.iobus.pkt_size_system.ruby.l1_cntrl1.sequencer.mem-master-port::total         4185                       # Cumulative packet size per connected master and slave (bytes)
system.iobus.pkt_size_system.ruby.l1_cntrl2.sequencer.mem-master-port::system.pc.south_bridge.io_apic.pio           44                       # Cumulative packet size per connected master and slave (bytes)
system.iobus.pkt_size_system.ruby.l1_cntrl2.sequencer.mem-master-port::system.pc.com_1.pio           82                       # Cumulative packet size per connected master and slave (bytes)
system.iobus.pkt_size_system.ruby.l1_cntrl2.sequencer.mem-master-port::system.ruby.l1_cntrl2.sequencer.pio-slave-port         3948                       # Cumulative packet size per connected master and slave (bytes)
system.iobus.pkt_size_system.ruby.l1_cntrl2.sequencer.mem-master-port::system.ruby.l1_cntrl3.sequencer.pio-slave-port            4                       # Cumulative packet size per connected master and slave (bytes)
system.iobus.pkt_size_system.ruby.l1_cntrl2.sequencer.mem-master-port::total         4078                       # Cumulative packet size per connected master and slave (bytes)
system.iobus.pkt_size_system.ruby.l1_cntrl3.sequencer.mem-master-port::system.pc.south_bridge.io_apic.pio           32                       # Cumulative packet size per connected master and slave (bytes)
system.iobus.pkt_size_system.ruby.l1_cntrl3.sequencer.mem-master-port::system.ruby.l1_cntrl0.sequencer.pio-slave-port            4                       # Cumulative packet size per connected master and slave (bytes)
system.iobus.pkt_size_system.ruby.l1_cntrl3.sequencer.mem-master-port::system.ruby.l1_cntrl1.sequencer.pio-slave-port            4                       # Cumulative packet size per connected master and slave (bytes)
system.iobus.pkt_size_system.ruby.l1_cntrl3.sequencer.mem-master-port::system.ruby.l1_cntrl2.sequencer.pio-slave-port            4                       # Cumulative packet size per connected master and slave (bytes)
system.iobus.pkt_size_system.ruby.l1_cntrl3.sequencer.mem-master-port::system.ruby.l1_cntrl3.sequencer.pio-slave-port         3956                       # Cumulative packet size per connected master and slave (bytes)
system.iobus.pkt_size_system.ruby.l1_cntrl3.sequencer.mem-master-port::total         4000                       # Cumulative packet size per connected master and slave (bytes)
system.iobus.pkt_size::total                    16296                       # Cumulative packet size per connected master and slave (bytes)
system.iobus.reqLayer2.occupancy                82000                       # Layer occupancy (ticks)
system.iobus.reqLayer2.utilization                0.0                       # Layer utilization (%)
system.iobus.reqLayer8.occupancy                51495                       # Layer occupancy (ticks)
system.iobus.reqLayer8.utilization                0.0                       # Layer utilization (%)
system.iobus.reqLayer12.occupancy              281500                       # Layer occupancy (ticks)
system.iobus.reqLayer12.utilization               0.0                       # Layer utilization (%)
system.iobus.reqLayer17.occupancy             2470499                       # Layer occupancy (ticks)
system.iobus.reqLayer17.utilization               0.0                       # Layer utilization (%)
system.iobus.reqLayer18.occupancy             2730021                       # Layer occupancy (ticks)
system.iobus.reqLayer18.utilization               0.0                       # Layer utilization (%)
system.iobus.reqLayer19.occupancy             2478000                       # Layer occupancy (ticks)
system.iobus.reqLayer19.utilization               0.0                       # Layer utilization (%)
system.iobus.reqLayer20.occupancy             2472498                       # Layer occupancy (ticks)
system.iobus.reqLayer20.utilization               0.0                       # Layer utilization (%)
system.iobus.respLayer0.occupancy               14998                       # Layer occupancy (ticks)
system.iobus.respLayer0.utilization               0.0                       # Layer utilization (%)
system.iobus.respLayer2.occupancy             1533500                       # Layer occupancy (ticks)
system.iobus.respLayer2.utilization               0.0                       # Layer utilization (%)
system.iobus.respLayer4.occupancy             1768500                       # Layer occupancy (ticks)
system.iobus.respLayer4.utilization               0.0                       # Layer utilization (%)
system.iobus.respLayer6.occupancy             1639500                       # Layer occupancy (ticks)
system.iobus.respLayer6.utilization               0.0                       # Layer utilization (%)
system.iobus.respLayer8.occupancy             1501500                       # Layer occupancy (ticks)
system.iobus.respLayer8.utilization               0.0                       # Layer utilization (%)
system.pc.south_bridge.ide.disks.dma_read_full_pages            1                       # Number of full page size DMA reads (not PRD).
system.pc.south_bridge.ide.disks.dma_read_bytes         4096                       # Number of bytes transfered via DMA reads (not PRD).
system.pc.south_bridge.ide.disks.dma_read_txs            1                       # Number of DMA read transactions (not PRD).
system.pc.south_bridge.ide.disks.dma_write_full_pages           24                       # Number of full page size DMA writes.
system.pc.south_bridge.ide.disks.dma_write_bytes        98304                       # Number of bytes transfered via DMA writes.
system.pc.south_bridge.ide.disks.dma_write_txs           24                       # Number of DMA write transactions.
system.ruby.clk_domain.clock                      500                       # Clock period in ticks
system.ruby.outstanding_req_hist_seqr::bucket_size            1                      
system.ruby.outstanding_req_hist_seqr::max_bucket            9                      
system.ruby.outstanding_req_hist_seqr::samples   3806029460                      
system.ruby.outstanding_req_hist_seqr::mean     1.000000                      
system.ruby.outstanding_req_hist_seqr::gmean     1.000000                      
system.ruby.outstanding_req_hist_seqr::stdev     0.000229                      
system.ruby.outstanding_req_hist_seqr    |           0      0.00%      0.00% |  3806029260    100.00%    100.00% |         200      0.00%    100.00% |           0      0.00%    100.00% |           0      0.00%    100.00% |           0      0.00%    100.00% |           0      0.00%    100.00% |           0      0.00%    100.00% |           0      0.00%    100.00% |           0      0.00%    100.00%
system.ruby.outstanding_req_hist_seqr::total   3806029460                      
system.ruby.latency_hist_seqr::bucket_size          128                      
system.ruby.latency_hist_seqr::max_bucket         1279                      
system.ruby.latency_hist_seqr::samples     3806029460                      
system.ruby.latency_hist_seqr::mean          1.062771                      
system.ruby.latency_hist_seqr::gmean         1.004093                      
system.ruby.latency_hist_seqr::stdev         2.878883                      
system.ruby.latency_hist_seqr            |  3805687937     99.99%     99.99% |      303700      0.01%    100.00% |       14298      0.00%    100.00% |        7209      0.00%    100.00% |       12876      0.00%    100.00% |        3148      0.00%    100.00% |         208      0.00%    100.00% |          72      0.00%    100.00% |          10      0.00%    100.00% |           2      0.00%    100.00%
system.ruby.latency_hist_seqr::total       3806029460                      
system.ruby.hit_latency_hist_seqr::bucket_size            2                      
system.ruby.hit_latency_hist_seqr::max_bucket           19                      
system.ruby.hit_latency_hist_seqr::samples   3804247838                      
system.ruby.hit_latency_hist_seqr::mean      1.007873                      
system.ruby.hit_latency_hist_seqr::gmean     1.001890                      
system.ruby.hit_latency_hist_seqr::stdev     0.280480                      
system.ruby.hit_latency_hist_seqr        |  3801252706     99.92%     99.92% |           0      0.00%     99.92% |           0      0.00%     99.92% |           0      0.00%     99.92% |           0      0.00%     99.92% |     2995132      0.08%    100.00% |           0      0.00%    100.00% |           0      0.00%    100.00% |           0      0.00%    100.00% |           0      0.00%    100.00%
system.ruby.hit_latency_hist_seqr::total   3804247838                      
system.ruby.miss_latency_hist_seqr::bucket_size          128                      
system.ruby.miss_latency_hist_seqr::max_bucket         1279                      
system.ruby.miss_latency_hist_seqr::samples      1781622                      
system.ruby.miss_latency_hist_seqr::mean   118.284052                      
system.ruby.miss_latency_hist_seqr::gmean   109.307308                      
system.ruby.miss_latency_hist_seqr::stdev    61.563905                      
system.ruby.miss_latency_hist_seqr       |     1440099     80.83%     80.83% |      303700     17.05%     97.88% |       14298      0.80%     98.68% |        7209      0.40%     99.08% |       12876      0.72%     99.81% |        3148      0.18%     99.98% |         208      0.01%    100.00% |          72      0.00%    100.00% |          10      0.00%    100.00% |           2      0.00%    100.00%
system.ruby.miss_latency_hist_seqr::total      1781622                      
system.ruby.L1Cache.incomplete_times_seqr            7                      
system.ruby.dir_cntrl0.probeFilter.demand_hits            0                       # Number of cache demand hits
[...]
system.ruby.L1Cache_Controller.O.Trigger_L2_to_L1I::total        36216                      
system.ruby.L1Cache_Controller.O.Other_GETX |        4636     20.47%     20.47% |        1114      4.92%     25.39% |        7825     34.55%     59.94% |        9073     40.06%    100.00%
system.ruby.L1Cache_Controller.O.Other_GETX::total        22648                      
system.ruby.L1Cache_Controller.O.Other_GETS |        4629     15.88%     15.88% |        1207      4.14%     20.03% |        8468     29.06%     49.08% |       14838     50.92%    100.00%
system.ruby.L1Cache_Controller.O.Other_GETS::total        29142                      
system.ruby.L1Cache_Controller.M.Load    |      132394      0.09%      0.09% |   150788118     99.69%     99.77% |      122219      0.08%     99.86% |      218916      0.14%    100.00%
system.ruby.L1Cache_Controller.M.Load::total    151261647                      
system.ruby.L1Cache_Controller.M.Ifetch  |     1708483      0.00%      0.00% |18446744072780607488    100.00%    100.00% |       72766      0.00%    100.00% |      904785      0.00%    100.00%
system.ruby.L1Cache_Controller.M.Ifetch::total 18446744072783294464                      
system.ruby.L1Cache_Controller.M.Store   |        2568      0.55%      0.55% |      451957     97.12%     97.67% |        2440      0.52%     98.19% |        8413      1.81%    100.00%
system.ruby.L1Cache_Controller.M.Store::total       465378                      
system.ruby.L1Cache_Controller.M.L2_Replacement |          18      0.00%      0.00% |      817891     99.81%     99.81% |           3      0.00%     99.82% |        1513      0.18%    100.00%
system.ruby.L1Cache_Controller.M.L2_Replacement::total       819425                      
system.ruby.L1Cache_Controller.M.L1_to_L2 |       13718      0.48%      0.48% |     2837184     98.72%     99.20% |        7967      0.28%     99.48% |       14995      0.52%    100.00%
system.ruby.L1Cache_Controller.M.L1_to_L2::total      2873864                      
system.ruby.L1Cache_Controller.M.Trigger_L2_to_L1D |        1415      0.07%      0.07% |     1933343     99.62%     99.70% |        1240      0.06%     99.76% |        4629      0.24%    100.00%
system.ruby.L1Cache_Controller.M.Trigger_L2_to_L1D::total      1940627                      
system.ruby.L1Cache_Controller.M.Trigger_L2_to_L1I |        7991      8.67%      8.67% |       82539     89.59%     98.26% |         341      0.37%     98.63% |        1260      1.37%    100.00%
system.ruby.L1Cache_Controller.M.Trigger_L2_to_L1I::total        92131                      
system.ruby.L1Cache_Controller.M.Other_GETX |         596     29.12%     29.12% |         185      9.04%     38.15% |         258     12.60%     50.76% |        1008     49.24%    100.00%
system.ruby.L1Cache_Controller.M.Other_GETX::total         2047                      
system.ruby.L1Cache_Controller.M.Other_GETS |        5857     20.46%     20.46% |        2683      9.37%     29.84% |        9212     32.18%     62.02% |       10872     37.98%    100.00%
system.ruby.L1Cache_Controller.M.Other_GETS::total        28624                      
system.ruby.L1Cache_Controller.M.Merged_GETS |           6      7.06%      7.06% |          41     48.24%     55.29% |           5      5.88%     61.18% |          33     38.82%    100.00%
system.ruby.L1Cache_Controller.M.Merged_GETS::total           85                      
system.ruby.L1Cache_Controller.MM.Load   |     1018515      0.50%      0.50% |   200731591     98.43%     98.93% |      688243      0.34%     99.27% |     1496179      0.73%    100.00%
system.ruby.L1Cache_Controller.MM.Load::total    203934528                      
system.ruby.L1Cache_Controller.MM.Store  |     1101184      1.91%      1.91% |    54288687     94.11%     96.02% |      759066      1.32%     97.33% |     1539559      2.67%    100.00%
system.ruby.L1Cache_Controller.MM.Store::total     57688496                      
system.ruby.L1Cache_Controller.MM.L2_Replacement |          59      0.01%      0.01% |      845544     99.35%     99.36% |           3      0.00%     99.36% |        5466      0.64%    100.00%
system.ruby.L1Cache_Controller.MM.L2_Replacement::total       851072                      
system.ruby.L1Cache_Controller.MM.L1_to_L2 |       18741      1.10%      1.10% |     1621984     95.58%     96.68% |       11701      0.69%     97.37% |       44570      2.63%    100.00%
system.ruby.L1Cache_Controller.MM.L1_to_L2::total      1696996                      
system.ruby.L1Cache_Controller.MM.Trigger_L2_to_L1D |        6876      0.86%      0.86% |      759936     95.54%     96.40% |        4465      0.56%     96.96% |       24146      3.04%    100.00%
system.ruby.L1Cache_Controller.MM.Trigger_L2_to_L1D::total       795423                      
system.ruby.L1Cache_Controller.MM.Other_GETX |        3279     27.22%     27.22% |        2303     19.12%     46.34% |        2936     24.38%     70.72% |        3527     29.28%    100.00%
system.ruby.L1Cache_Controller.MM.Other_GETX::total        12045                      
system.ruby.L1Cache_Controller.MM.Other_GETS |       13637     39.38%     39.38% |        6931     20.02%     59.40% |        5869     16.95%     76.35% |        8189     23.65%    100.00%
system.ruby.L1Cache_Controller.MM.Other_GETS::total        34626                      
system.ruby.L1Cache_Controller.MM.Merged_GETS |         136     28.81%     28.81% |         150     31.78%     60.59% |         146     30.93%     91.53% |          40      8.47%    100.00%
system.ruby.L1Cache_Controller.MM.Merged_GETS::total          472                      
system.ruby.L1Cache_Controller.SR.Load   |        3854      5.56%      5.56% |       48563     70.10%     75.67% |        4615      6.66%     82.33% |       12240     17.67%    100.00%
system.ruby.L1Cache_Controller.SR.Load::total        69272                      
system.ruby.L1Cache_Controller.SR.Ifetch |       30777     19.02%     19.02% |       42195     26.07%     45.09% |       37716     23.30%     68.39% |       51163     31.61%    100.00%
system.ruby.L1Cache_Controller.SR.Ifetch::total       161851                      
system.ruby.L1Cache_Controller.SR.Store  |          81     21.72%     21.72% |         139     37.27%     58.98% |           9      2.41%     61.39% |         144     38.61%    100.00%
system.ruby.L1Cache_Controller.SR.Store::total          373                      
system.ruby.L1Cache_Controller.OR.Load   |        2508     32.22%     32.22% |        1110     14.26%     46.48% |        1657     21.29%     67.77% |        2509     32.23%    100.00%
system.ruby.L1Cache_Controller.OR.Load::total         7784                      
system.ruby.L1Cache_Controller.OR.Ifetch |       20258     55.94%     55.94% |        3471      9.58%     65.52% |         604      1.67%     67.19% |       11883     32.81%    100.00%
system.ruby.L1Cache_Controller.OR.Ifetch::total        36216                      
system.ruby.L1Cache_Controller.OR.Store  |          69     60.53%     60.53% |           4      3.51%     64.04% |           9      7.89%     71.93% |          32     28.07%    100.00%
system.ruby.L1Cache_Controller.OR.Store::total          114                      
system.ruby.L1Cache_Controller.MR.Load   |        1211      0.06%      0.06% |     1918743     99.70%     99.76% |        1109      0.06%     99.82% |        3469      0.18%    100.00%
system.ruby.L1Cache_Controller.MR.Load::total      1924532                      
system.ruby.L1Cache_Controller.MR.Ifetch |        7991      8.67%      8.67% |       82539     89.59%     98.26% |         341      0.37%     98.63% |        1260      1.37%    100.00%
system.ruby.L1Cache_Controller.MR.Ifetch::total        92131                      
system.ruby.L1Cache_Controller.MR.Store  |         204      1.27%      1.27% |       14600     90.71%     91.98% |         131      0.81%     92.79% |        1160      7.21%    100.00%
system.ruby.L1Cache_Controller.MR.Store::total        16095                      
system.ruby.L1Cache_Controller.MMR.Load  |        4180      0.67%      0.67% |      600621     96.69%     97.36% |        1524      0.25%     97.61% |       14858      2.39%    100.00%
system.ruby.L1Cache_Controller.MMR.Load::total       621183                      
system.ruby.L1Cache_Controller.MMR.Store |        2696      1.55%      1.55% |      159315     91.43%     92.98% |        2941      1.69%     94.67% |        9288      5.33%    100.00%
system.ruby.L1Cache_Controller.MMR.Store::total       174240                      
system.ruby.L1Cache_Controller.IM.Ack    |       31589      2.53%      2.53% |     1182169     94.72%     97.25% |       12937      1.04%     98.29% |       21334      1.71%    100.00%
system.ruby.L1Cache_Controller.IM.Ack::total      1248029                      
system.ruby.L1Cache_Controller.IM.Data   |        3883     41.66%     41.66% |        1085     11.64%     53.30% |        1893     20.31%     73.61% |        2460     26.39%    100.00%
system.ruby.L1Cache_Controller.IM.Data::total         9321                      
system.ruby.L1Cache_Controller.IM.Exclusive_Data |        9534      2.26%      2.26% |      396540     94.18%     96.44% |        4759      1.13%     97.57% |       10219      2.43%    100.00%
system.ruby.L1Cache_Controller.IM.Exclusive_Data::total       421052                      
system.ruby.L1Cache_Controller.SM.Other_GETX |           0      0.00%      0.00% |           0      0.00%      0.00% |           0      0.00%      0.00% |           1    100.00%    100.00%
system.ruby.L1Cache_Controller.SM.Other_GETX::total            1                      
system.ruby.L1Cache_Controller.SM.Ack    |        8090     49.26%     49.26% |        2141     13.04%     62.29% |        1477      8.99%     71.29% |        4716     28.71%    100.00%
system.ruby.L1Cache_Controller.SM.Ack::total        16424                      
system.ruby.L1Cache_Controller.SM.Data   |        5353     39.69%     39.69% |        2471     18.32%     58.01% |        2138     15.85%     73.86% |        3525     26.14%    100.00%
system.ruby.L1Cache_Controller.SM.Data::total        13487                      
system.ruby.L1Cache_Controller.OM.Ack    |         453     33.48%     33.48% |         141     10.42%     43.90% |         111      8.20%     52.11% |         648     47.89%    100.00%
system.ruby.L1Cache_Controller.OM.Ack::total         1353                      
system.ruby.L1Cache_Controller.OM.All_acks_no_sharers |         151     33.48%     33.48% |          47     10.42%     43.90% |          37      8.20%     52.11% |         216     47.89%    100.00%
system.ruby.L1Cache_Controller.OM.All_acks_no_sharers::total          451                      
system.ruby.L1Cache_Controller.ISM.Ack   |        4356     24.35%     24.35% |        4047     22.62%     46.98% |        5809     32.47%     79.45% |        3676     20.55%    100.00%
system.ruby.L1Cache_Controller.ISM.Ack::total        17888                      
system.ruby.L1Cache_Controller.ISM.All_acks_no_sharers |        9236     40.49%     40.49% |        3556     15.59%     56.09% |        4031     17.67%     73.76% |        5985     26.24%    100.00%
system.ruby.L1Cache_Controller.ISM.All_acks_no_sharers::total        22808                      
system.ruby.L1Cache_Controller.M_W.Load  |          58     24.89%     24.89% |          48     20.60%     45.49% |          39     16.74%     62.23% |          88     37.77%    100.00%
system.ruby.L1Cache_Controller.M_W.Load::total          233                      
system.ruby.L1Cache_Controller.M_W.Store |          79     66.39%     66.39% |          19     15.97%     82.35% |          13     10.92%     93.28% |           8      6.72%    100.00%
system.ruby.L1Cache_Controller.M_W.Store::total          119                      
system.ruby.L1Cache_Controller.M_W.Ack   |        5661     14.88%     14.88% |        4493     11.81%     26.70% |        7797     20.50%     47.20% |       20083     52.80%    100.00%
system.ruby.L1Cache_Controller.M_W.Ack::total        38034                      
system.ruby.L1Cache_Controller.M_W.All_acks_no_sharers |       10848      0.81%      0.81% |     1288582     96.27%     97.08% |       13518      1.01%     98.09% |       25587      1.91%    100.00%
system.ruby.L1Cache_Controller.M_W.All_acks_no_sharers::total      1338535                      
system.ruby.L1Cache_Controller.MM_W.Store |         565     12.50%     12.50% |        1239     27.41%     39.91% |         393      8.69%     48.61% |        2323     51.39%    100.00%
system.ruby.L1Cache_Controller.MM_W.Store::total         4520                      
system.ruby.L1Cache_Controller.MM_W.Ack  |        1418     11.19%     11.19% |        3866     30.52%     41.71% |        1000      7.89%     49.61% |        6383     50.39%    100.00%
system.ruby.L1Cache_Controller.MM_W.Ack::total        12667                      
system.ruby.L1Cache_Controller.MM_W.All_acks_no_sharers |        9613      2.28%      2.28% |      396559     94.16%     96.44% |        4772      1.13%     97.57% |       10227      2.43%    100.00%
system.ruby.L1Cache_Controller.MM_W.All_acks_no_sharers::total       421171                      
system.ruby.L1Cache_Controller.IS.Ack    |       31673      0.79%      0.79% |     3880195     96.97%     97.76% |       36029      0.90%     98.66% |       53561      1.34%    100.00%
system.ruby.L1Cache_Controller.IS.Ack::total      4001458                      
system.ruby.L1Cache_Controller.IS.Shared_Ack |        9923     21.73%     21.73% |       23112     50.61%     72.34% |        5811     12.72%     85.06% |        6823     14.94%    100.00%
system.ruby.L1Cache_Controller.IS.Shared_Ack::total        45669                      
system.ruby.L1Cache_Controller.IS.Data   |         960      7.59%      7.59% |        9508     75.22%     82.82% |         635      5.02%     87.84% |        1537     12.16%    100.00%
system.ruby.L1Cache_Controller.IS.Data::total        12640                      
system.ruby.L1Cache_Controller.IS.Shared_Data |       15498     26.57%     26.57% |       15378     26.37%     52.94% |       14144     24.25%     77.19% |       13303     22.81%    100.00%
system.ruby.L1Cache_Controller.IS.Shared_Data::total        58323                      
system.ruby.L1Cache_Controller.IS.Exclusive_Data |       10927      0.82%      0.82% |     1288601     96.26%     97.08% |       13531      1.01%     98.09% |       25595      1.91%    100.00%
system.ruby.L1Cache_Controller.IS.Exclusive_Data::total      1338654                      
system.ruby.L1Cache_Controller.SS.Load   |          38      5.68%      5.68% |         522     78.03%     83.71% |          14      2.09%     85.80% |          95     14.20%    100.00%
system.ruby.L1Cache_Controller.SS.Load::total          669                      
system.ruby.L1Cache_Controller.SS.Ifetch |        1119     19.38%     19.38% |        2361     40.89%     60.27% |         832     14.41%     74.68% |        1462     25.32%    100.00%
system.ruby.L1Cache_Controller.SS.Ifetch::total         5774                      
system.ruby.L1Cache_Controller.SS.Store  |           5     27.78%     27.78% |           6     33.33%     61.11% |           0      0.00%     61.11% |           7     38.89%    100.00%
system.ruby.L1Cache_Controller.SS.Store::total           18                      
system.ruby.L1Cache_Controller.SS.Ack    |        9651     27.18%     27.18% |        6922     19.49%     46.67% |        9005     25.36%     72.03% |        9930     27.97%    100.00%
system.ruby.L1Cache_Controller.SS.Ack::total        35508                      
system.ruby.L1Cache_Controller.SS.Shared_Ack |        2892     20.65%     20.65% |        5790     41.34%     61.98% |        2995     21.38%     83.37% |        2330     16.63%    100.00%
system.ruby.L1Cache_Controller.SS.Shared_Ack::total        14007                      
system.ruby.L1Cache_Controller.SS.All_acks |       16453     23.36%     23.36% |       24594     34.92%     58.29% |       14769     20.97%     79.26% |       14606     20.74%    100.00%
system.ruby.L1Cache_Controller.SS.All_acks::total        70422                      
system.ruby.L1Cache_Controller.SS.All_acks_no_sharers |           5      0.92%      0.92% |         292     53.97%     54.90% |          10      1.85%     56.75% |         234     43.25%    100.00%
system.ruby.L1Cache_Controller.SS.All_acks_no_sharers::total          541                      
system.ruby.L1Cache_Controller.OI.Load   |           0      0.00%      0.00% |           7     63.64%     63.64% |           0      0.00%     63.64% |           4     36.36%    100.00%
system.ruby.L1Cache_Controller.OI.Load::total           11                      
system.ruby.L1Cache_Controller.OI.Ifetch |           0      0.00%      0.00% |           9     64.29%     64.29% |           0      0.00%     64.29% |           5     35.71%    100.00%
system.ruby.L1Cache_Controller.OI.Ifetch::total           14                      
system.ruby.L1Cache_Controller.OI.Store  |           1     50.00%     50.00% |           0      0.00%     50.00% |           0      0.00%     50.00% |           1     50.00%    100.00%
system.ruby.L1Cache_Controller.OI.Store::total            2                      
system.ruby.L1Cache_Controller.OI.Writeback_Ack |          13      0.23%      0.23% |        4810     84.91%     85.14% |           1      0.02%     85.15% |         841     14.85%    100.00%
system.ruby.L1Cache_Controller.OI.Writeback_Ack::total         5665                      
system.ruby.L1Cache_Controller.MI.Load   |           1      0.01%      0.01% |       11691     99.73%     99.74% |           0      0.00%     99.74% |          31      0.26%    100.00%
system.ruby.L1Cache_Controller.MI.Load::total        11723                      
system.ruby.L1Cache_Controller.MI.Ifetch |           0      0.00%      0.00% |           7    100.00%    100.00% |           0      0.00%    100.00% |           0      0.00%    100.00%
system.ruby.L1Cache_Controller.MI.Ifetch::total            7                      
system.ruby.L1Cache_Controller.MI.Store  |           0      0.00%      0.00% |        1644     99.22%     99.22% |           0      0.00%     99.22% |          13      0.78%    100.00%
system.ruby.L1Cache_Controller.MI.Store::total         1657                      
system.ruby.L1Cache_Controller.MI.Writeback_Ack |          77      0.00%      0.00% |     1663435     99.58%     99.58% |           6      0.00%     99.58% |        6979      0.42%    100.00%
system.ruby.L1Cache_Controller.MI.Writeback_Ack::total      1670497                      
system.ruby.L1Cache_Controller.ST.Complete_L2_to_L1 |       34712     14.99%     14.99% |       90897     39.27%     54.26% |       42340     18.29%     72.55% |       63547     27.45%    100.00%
system.ruby.L1Cache_Controller.ST.Complete_L2_to_L1::total       231496                      
system.ruby.L1Cache_Controller.OT.Complete_L2_to_L1 |       22835     51.76%     51.76% |        4585     10.39%     62.16% |        2270      5.15%     67.30% |       14424     32.70%    100.00%
system.ruby.L1Cache_Controller.OT.Complete_L2_to_L1::total        44114                      
system.ruby.L1Cache_Controller.MT.Complete_L2_to_L1 |        9406      0.46%      0.46% |     2015882     99.17%     99.63% |        1581      0.08%     99.71% |        5889      0.29%    100.00%
system.ruby.L1Cache_Controller.MT.Complete_L2_to_L1::total      2032758                      
system.ruby.L1Cache_Controller.MMT.Complete_L2_to_L1 |        6876      0.86%      0.86% |      759936     95.54%     96.40% |        4465      0.56%     96.96% |       24146      3.04%    100.00%
system.ruby.L1Cache_Controller.MMT.Complete_L2_to_L1::total       795423                      

---------- End Simulation Statistics   ----------
