
---------- Begin Simulation Statistics ----------
sim_seconds                                  3.948310                       # Number of seconds simulated
sim_ticks                                3948310445000                       # Number of ticks simulated
final_tick                               55173480304001                       # Number of ticks from beginning of simulation (restored from checkpoints and never reset)
sim_freq                                 1000000000000                       # Frequency of simulated ticks
host_inst_rate                                 145928                       # Simulator instruction rate (inst/s)
host_op_rate                                   204590                       # Simulator op (including micro ops) rate (op/s)
host_tick_rate                              255998259                       # Simulator tick rate (ticks/s)
host_mem_usage                                1821504                       # Number of bytes of host memory used
host_seconds                                 15423.19                       # Real time elapsed on the host
sim_insts                                  2250680276                       # Number of instructions simulated
sim_ops                                    3155429117                       # Number of ops (including micro ops) simulated
system.voltage_domain.voltage                       1                       # Voltage in Volts
system.clk_domain.clock                          1000                       # Clock period in ticks
system.mem_ctrls.bytes_read::ruby.dir_cntrl0     94078144                       # Number of bytes read from this memory
system.mem_ctrls.bytes_read::total           94078144                       # Number of bytes read from this memory
system.mem_ctrls.bytes_written::ruby.dir_cntrl0     51365056                       # Number of bytes written to this memory
system.mem_ctrls.bytes_written::total        51365056                       # Number of bytes written to this memory
system.mem_ctrls.num_reads::ruby.dir_cntrl0      1469971                       # Number of read requests responded to by this memory
system.mem_ctrls.num_reads::total             1469971                       # Number of read requests responded to by this memory
system.mem_ctrls.num_writes::ruby.dir_cntrl0       802579                       # Number of write requests responded to by this memory
system.mem_ctrls.num_writes::total             802579                       # Number of write requests responded to by this memory
system.mem_ctrls.bw_read::ruby.dir_cntrl0     23827443                       # Total read bandwidth from this memory (bytes/s)
system.mem_ctrls.bw_read::total              23827443                       # Total read bandwidth from this memory (bytes/s)
system.mem_ctrls.bw_write::ruby.dir_cntrl0     13009376                       # Write bandwidth from this memory (bytes/s)
system.mem_ctrls.bw_write::total             13009376                       # Write bandwidth from this memory (bytes/s)
system.mem_ctrls.bw_total::ruby.dir_cntrl0     36836820                       # Total bandwidth to/from this memory (bytes/s)
system.mem_ctrls.bw_total::total             36836820                       # Total bandwidth to/from this memory (bytes/s)
system.mem_ctrls.readReqs                     1469971                       # Number of read requests accepted
system.mem_ctrls.writeReqs                     802579                       # Number of write requests accepted
system.mem_ctrls.readBursts                   1469971                       # Number of DRAM read bursts, including those serviced by the write queue
system.mem_ctrls.writeBursts                   802579                       # Number of DRAM write bursts, including those merged in the write queue
system.mem_ctrls.bytesReadDRAM               94004032                       # Total number of bytes read from DRAM
system.mem_ctrls.bytesReadWrQ                   74112                       # Total number of bytes read from write queue
system.mem_ctrls.bytesWritten                51365120                       # Total number of bytes written to DRAM
system.mem_ctrls.bytesReadSys                94078144                       # Total read bytes from the system interface side
system.mem_ctrls.bytesWrittenSys             51365056                       # Total written bytes from the system interface side
system.mem_ctrls.servicedByWrQ                   1158                       # Number of DRAM read bursts serviced by the write queue
system.mem_ctrls.mergedWrBursts                     0                       # Number of DRAM write bursts merged with an existing one
system.mem_ctrls.neitherReadNorWriteReqs            0                       # Number of requests that are neither read nor write
system.mem_ctrls.perBankRdBursts::0             95439                       # Per bank write bursts
system.mem_ctrls.perBankRdBursts::1             93227                       # Per bank write bursts
system.mem_ctrls.perBankRdBursts::2             92465                       # Per bank write bursts
system.mem_ctrls.perBankRdBursts::3             88396                       # Per bank write bursts
system.mem_ctrls.perBankRdBursts::4             86714                       # Per bank write bursts
system.mem_ctrls.perBankRdBursts::5             92411                       # Per bank write bursts
system.mem_ctrls.perBankRdBursts::6             97508                       # Per bank write bursts
system.mem_ctrls.perBankRdBursts::7             96754                       # Per bank write bursts
system.mem_ctrls.perBankRdBursts::8             98431                       # Per bank write bursts
system.mem_ctrls.perBankRdBursts::9             94922                       # Per bank write bursts
system.mem_ctrls.perBankRdBursts::10            93160                       # Per bank write bursts
system.mem_ctrls.perBankRdBursts::11            85967                       # Per bank write bursts
system.mem_ctrls.perBankRdBursts::12            88487                       # Per bank write bursts
system.mem_ctrls.perBankRdBursts::13            85454                       # Per bank write bursts
system.mem_ctrls.perBankRdBursts::14            88088                       # Per bank write bursts
system.mem_ctrls.perBankRdBursts::15            91390                       # Per bank write bursts
system.mem_ctrls.perBankWrBursts::0             51397                       # Per bank write bursts
system.mem_ctrls.perBankWrBursts::1             52727                       # Per bank write bursts
system.mem_ctrls.perBankWrBursts::2             51204                       # Per bank write bursts
system.mem_ctrls.perBankWrBursts::3             47671                       # Per bank write bursts
system.mem_ctrls.perBankWrBursts::4             46943                       # Per bank write bursts
system.mem_ctrls.perBankWrBursts::5             50016                       # Per bank write bursts
system.mem_ctrls.perBankWrBursts::6             52847                       # Per bank write bursts
system.mem_ctrls.perBankWrBursts::7             52008                       # Per bank write bursts
system.mem_ctrls.perBankWrBursts::8             53155                       # Per bank write bursts
system.mem_ctrls.perBankWrBursts::9             51617                       # Per bank write bursts
system.mem_ctrls.perBankWrBursts::10            52081                       # Per bank write bursts
system.mem_ctrls.perBankWrBursts::11            48226                       # Per bank write bursts
system.mem_ctrls.perBankWrBursts::12            47988                       # Per bank write bursts
system.mem_ctrls.perBankWrBursts::13            46481                       # Per bank write bursts
system.mem_ctrls.perBankWrBursts::14            48297                       # Per bank write bursts
system.mem_ctrls.perBankWrBursts::15            49922                       # Per bank write bursts
system.mem_ctrls.numRdRetry                         0                       # Number of times read queue was full causing retry
system.mem_ctrls.numWrRetry                         0                       # Number of times write queue was full causing retry
system.mem_ctrls.totGap                  3948310404000                       # Total gap between requests
system.mem_ctrls.readPktSize::0                     0                       # Read request sizes (log2)
system.mem_ctrls.readPktSize::1                     0                       # Read request sizes (log2)
system.mem_ctrls.readPktSize::2                     0                       # Read request sizes (log2)
system.mem_ctrls.readPktSize::3                     0                       # Read request sizes (log2)
system.mem_ctrls.readPktSize::4                     0                       # Read request sizes (log2)
system.mem_ctrls.readPktSize::5                     0                       # Read request sizes (log2)
system.mem_ctrls.readPktSize::6               1469971                       # Read request sizes (log2)
system.mem_ctrls.writePktSize::0                    0                       # Write request sizes (log2)
system.mem_ctrls.writePktSize::1                    0                       # Write request sizes (log2)
system.mem_ctrls.writePktSize::2                    0                       # Write request sizes (log2)
system.mem_ctrls.writePktSize::3                    0                       # Write request sizes (log2)
system.mem_ctrls.writePktSize::4                    0                       # Write request sizes (log2)
system.mem_ctrls.writePktSize::5                    0                       # Write request sizes (log2)
system.mem_ctrls.writePktSize::6               802579                       # Write request sizes (log2)
system.mem_ctrls.rdQLenPdf::0                 1464093                       # What read queue length does an incoming req see
system.mem_ctrls.rdQLenPdf::1                    4698                       # What read queue length does an incoming req see
system.mem_ctrls.rdQLenPdf::2                      22                       # What read queue length does an incoming req see
system.mem_ctrls.rdQLenPdf::3                       0                       # What read queue length does an incoming req see
system.mem_ctrls.rdQLenPdf::4                       0                       # What read queue length does an incoming req see
system.mem_ctrls.rdQLenPdf::5                       0                       # What read queue length does an incoming req see
system.mem_ctrls.rdQLenPdf::6                       0                       # What read queue length does an incoming req see
system.mem_ctrls.rdQLenPdf::7                       0                       # What read queue length does an incoming req see
system.mem_ctrls.rdQLenPdf::8                       0                       # What read queue length does an incoming req see
system.mem_ctrls.rdQLenPdf::9                       0                       # What read queue length does an incoming req see
system.mem_ctrls.rdQLenPdf::10                      0                       # What read queue length does an incoming req see
system.mem_ctrls.rdQLenPdf::11                      0                       # What read queue length does an incoming req see
system.mem_ctrls.rdQLenPdf::12                      0                       # What read queue length does an incoming req see
system.mem_ctrls.rdQLenPdf::13                      0                       # What read queue length does an incoming req see
system.mem_ctrls.rdQLenPdf::14                      0                       # What read queue length does an incoming req see
system.mem_ctrls.rdQLenPdf::15                      0                       # What read queue length does an incoming req see
system.mem_ctrls.rdQLenPdf::16                      0                       # What read queue length does an incoming req see
system.mem_ctrls.rdQLenPdf::17                      0                       # What read queue length does an incoming req see
system.mem_ctrls.rdQLenPdf::18                      0                       # What read queue length does an incoming req see
system.mem_ctrls.rdQLenPdf::19                      0                       # What read queue length does an incoming req see
system.mem_ctrls.rdQLenPdf::20                      0                       # What read queue length does an incoming req see
system.mem_ctrls.rdQLenPdf::21                      0                       # What read queue length does an incoming req see
system.mem_ctrls.rdQLenPdf::22                      0                       # What read queue length does an incoming req see
system.mem_ctrls.rdQLenPdf::23                      0                       # What read queue length does an incoming req see
system.mem_ctrls.rdQLenPdf::24                      0                       # What read queue length does an incoming req see
system.mem_ctrls.rdQLenPdf::25                      0                       # What read queue length does an incoming req see
system.mem_ctrls.rdQLenPdf::26                      0                       # What read queue length does an incoming req see
system.mem_ctrls.rdQLenPdf::27                      0                       # What read queue length does an incoming req see
system.mem_ctrls.rdQLenPdf::28                      0                       # What read queue length does an incoming req see
system.mem_ctrls.rdQLenPdf::29                      0                       # What read queue length does an incoming req see
system.mem_ctrls.rdQLenPdf::30                      0                       # What read queue length does an incoming req see
system.mem_ctrls.rdQLenPdf::31                      0                       # What read queue length does an incoming req see
system.mem_ctrls.wrQLenPdf::0                       0                       # What write queue length does an incoming req see
system.mem_ctrls.wrQLenPdf::1                       0                       # What write queue length does an incoming req see
system.mem_ctrls.wrQLenPdf::2                       0                       # What write queue length does an incoming req see
system.mem_ctrls.wrQLenPdf::3                       0                       # What write queue length does an incoming req see
system.mem_ctrls.wrQLenPdf::4                       0                       # What write queue length does an incoming req see
system.mem_ctrls.wrQLenPdf::5                       0                       # What write queue length does an incoming req see
system.mem_ctrls.wrQLenPdf::6                       0                       # What write queue length does an incoming req see
system.mem_ctrls.wrQLenPdf::7                       0                       # What write queue length does an incoming req see
system.mem_ctrls.wrQLenPdf::8                       0                       # What write queue length does an incoming req see
system.mem_ctrls.wrQLenPdf::9                       0                       # What write queue length does an incoming req see
system.mem_ctrls.wrQLenPdf::10                      0                       # What write queue length does an incoming req see
system.mem_ctrls.wrQLenPdf::11                      0                       # What write queue length does an incoming req see
system.mem_ctrls.wrQLenPdf::12                      0                       # What write queue length does an incoming req see
system.mem_ctrls.wrQLenPdf::13                      0                       # What write queue length does an incoming req see
system.mem_ctrls.wrQLenPdf::14                      0                       # What write queue length does an incoming req see
system.mem_ctrls.wrQLenPdf::15                   1084                       # What write queue length does an incoming req see
system.mem_ctrls.wrQLenPdf::16                   1195                       # What write queue length does an incoming req see
system.mem_ctrls.wrQLenPdf::17                  49325                       # What write queue length does an incoming req see
system.mem_ctrls.wrQLenPdf::18                  49982                       # What write queue length does an incoming req see
system.mem_ctrls.wrQLenPdf::19                  50009                       # What write queue length does an incoming req see
system.mem_ctrls.wrQLenPdf::20                  50074                       # What write queue length does an incoming req see
system.mem_ctrls.wrQLenPdf::21                  50109                       # What write queue length does an incoming req see
system.mem_ctrls.wrQLenPdf::22                  50090                       # What write queue length does an incoming req see
system.mem_ctrls.wrQLenPdf::23                  50122                       # What write queue length does an incoming req see
system.mem_ctrls.wrQLenPdf::24                  50094                       # What write queue length does an incoming req see
system.mem_ctrls.wrQLenPdf::25                  50072                       # What write queue length does an incoming req see
system.mem_ctrls.wrQLenPdf::26                  50088                       # What write queue length does an incoming req see
system.mem_ctrls.wrQLenPdf::27                  50068                       # What write queue length does an incoming req see
system.mem_ctrls.wrQLenPdf::28                  50060                       # What write queue length does an incoming req see
system.mem_ctrls.wrQLenPdf::29                  50057                       # What write queue length does an incoming req see
system.mem_ctrls.wrQLenPdf::30                  50039                       # What write queue length does an incoming req see
system.mem_ctrls.wrQLenPdf::31                  50030                       # What write queue length does an incoming req see
system.mem_ctrls.wrQLenPdf::32                  50015                       # What write queue length does an incoming req see
system.mem_ctrls.wrQLenPdf::33                     16                       # What write queue length does an incoming req see
system.mem_ctrls.wrQLenPdf::34                     10                       # What write queue length does an incoming req see
system.mem_ctrls.wrQLenPdf::35                      7                       # What write queue length does an incoming req see
system.mem_ctrls.wrQLenPdf::36                      9                       # What write queue length does an incoming req see
system.mem_ctrls.wrQLenPdf::37                      5                       # What write queue length does an incoming req see
system.mem_ctrls.wrQLenPdf::38                      4                       # What write queue length does an incoming req see
system.mem_ctrls.wrQLenPdf::39                      4                       # What write queue length does an incoming req see
system.mem_ctrls.wrQLenPdf::40                      5                       # What write queue length does an incoming req see
system.mem_ctrls.wrQLenPdf::41                      1                       # What write queue length does an incoming req see
system.mem_ctrls.wrQLenPdf::42                      1                       # What write queue length does an incoming req see
system.mem_ctrls.wrQLenPdf::43                      2                       # What write queue length does an incoming req see
system.mem_ctrls.wrQLenPdf::44                      2                       # What write queue length does an incoming req see
system.mem_ctrls.wrQLenPdf::45                      0                       # What write queue length does an incoming req see
system.mem_ctrls.wrQLenPdf::46                      0                       # What write queue length does an incoming req see
system.mem_ctrls.wrQLenPdf::47                      0                       # What write queue length does an incoming req see
system.mem_ctrls.wrQLenPdf::48                      0                       # What write queue length does an incoming req see
system.mem_ctrls.wrQLenPdf::49                      0                       # What write queue length does an incoming req see
system.mem_ctrls.wrQLenPdf::50                      0                       # What write queue length does an incoming req see
system.mem_ctrls.wrQLenPdf::51                      0                       # What write queue length does an incoming req see
system.mem_ctrls.wrQLenPdf::52                      0                       # What write queue length does an incoming req see
system.mem_ctrls.wrQLenPdf::53                      0                       # What write queue length does an incoming req see
system.mem_ctrls.wrQLenPdf::54                      0                       # What write queue length does an incoming req see
system.mem_ctrls.wrQLenPdf::55                      0                       # What write queue length does an incoming req see
system.mem_ctrls.wrQLenPdf::56                      0                       # What write queue length does an incoming req see
system.mem_ctrls.wrQLenPdf::57                      0                       # What write queue length does an incoming req see
system.mem_ctrls.wrQLenPdf::58                      0                       # What write queue length does an incoming req see
system.mem_ctrls.wrQLenPdf::59                      0                       # What write queue length does an incoming req see
system.mem_ctrls.wrQLenPdf::60                      0                       # What write queue length does an incoming req see
system.mem_ctrls.wrQLenPdf::61                      0                       # What write queue length does an incoming req see
system.mem_ctrls.wrQLenPdf::62                      0                       # What write queue length does an incoming req see
system.mem_ctrls.wrQLenPdf::63                      0                       # What write queue length does an incoming req see
system.mem_ctrls.bytesPerActivate::samples      1267211                       # Bytes accessed per row activation
system.mem_ctrls.bytesPerActivate::mean    114.715822                       # Bytes accessed per row activation
system.mem_ctrls.bytesPerActivate::gmean    87.795679                       # Bytes accessed per row activation
system.mem_ctrls.bytesPerActivate::stdev   140.718789                       # Bytes accessed per row activation
system.mem_ctrls.bytesPerActivate::0-127       893161     70.48%     70.48% # Bytes accessed per row activation
system.mem_ctrls.bytesPerActivate::128-255       280589     22.14%     92.62% # Bytes accessed per row activation
system.mem_ctrls.bytesPerActivate::256-383        37366      2.95%     95.57% # Bytes accessed per row activation
system.mem_ctrls.bytesPerActivate::384-511        15056      1.19%     96.76% # Bytes accessed per row activation
system.mem_ctrls.bytesPerActivate::512-639        10241      0.81%     97.57% # Bytes accessed per row activation
system.mem_ctrls.bytesPerActivate::640-767         9022      0.71%     98.28% # Bytes accessed per row activation
system.mem_ctrls.bytesPerActivate::768-895         5193      0.41%     98.69% # Bytes accessed per row activation
system.mem_ctrls.bytesPerActivate::896-1023         4140      0.33%     99.02% # Bytes accessed per row activation
system.mem_ctrls.bytesPerActivate::1024-1151        12443      0.98%    100.00% # Bytes accessed per row activation
system.mem_ctrls.bytesPerActivate::total      1267211                       # Bytes accessed per row activation
system.mem_ctrls.rdPerTurnAround::samples        50012                       # Reads before turning the bus around for writes
system.mem_ctrls.rdPerTurnAround::mean      29.677657                       # Reads before turning the bus around for writes
system.mem_ctrls.rdPerTurnAround::gmean     27.613640                       # Reads before turning the bus around for writes
system.mem_ctrls.rdPerTurnAround::stdev     73.014278                       # Reads before turning the bus around for writes
system.mem_ctrls.rdPerTurnAround::0-511         50003     99.98%     99.98% # Reads before turning the bus around for writes
system.mem_ctrls.rdPerTurnAround::512-1023            5      0.01%     99.99% # Reads before turning the bus around for writes
system.mem_ctrls.rdPerTurnAround::1024-1535            1      0.00%     99.99% # Reads before turning the bus around for writes
system.mem_ctrls.rdPerTurnAround::1536-2047            2      0.00%    100.00% # Reads before turning the bus around for writes
system.mem_ctrls.rdPerTurnAround::15360-15871            1      0.00%    100.00% # Reads before turning the bus around for writes
system.mem_ctrls.rdPerTurnAround::total         50012                       # Reads before turning the bus around for writes
system.mem_ctrls.wrPerTurnAround::samples        50012                       # Writes before turning the bus around for reads
system.mem_ctrls.wrPerTurnAround::mean      16.047749                       # Writes before turning the bus around for reads
system.mem_ctrls.wrPerTurnAround::gmean     16.045000                       # Writes before turning the bus around for reads
system.mem_ctrls.wrPerTurnAround::stdev      0.309804                       # Writes before turning the bus around for reads
system.mem_ctrls.wrPerTurnAround::16            48792     97.56%     97.56% # Writes before turning the bus around for reads
system.mem_ctrls.wrPerTurnAround::17               93      0.19%     97.75% # Writes before turning the bus around for reads
system.mem_ctrls.wrPerTurnAround::18             1109      2.22%     99.96% # Writes before turning the bus around for reads
system.mem_ctrls.wrPerTurnAround::19               10      0.02%     99.98% # Writes before turning the bus around for reads
system.mem_ctrls.wrPerTurnAround::20                2      0.00%     99.99% # Writes before turning the bus around for reads
system.mem_ctrls.wrPerTurnAround::21                1      0.00%     99.99% # Writes before turning the bus around for reads
system.mem_ctrls.wrPerTurnAround::22                3      0.01%    100.00% # Writes before turning the bus around for reads
system.mem_ctrls.wrPerTurnAround::23                1      0.00%    100.00% # Writes before turning the bus around for reads
system.mem_ctrls.wrPerTurnAround::25                1      0.00%    100.00% # Writes before turning the bus around for reads
system.mem_ctrls.wrPerTurnAround::total         50012                       # Writes before turning the bus around for reads
system.mem_ctrls.totQLat                  25011856624                       # Total ticks spent queuing
system.mem_ctrls.totMemAccLat             52552100374                       # Total ticks spent from burst creation until serviced by the DRAM
system.mem_ctrls.totBusLat                 7344065000                       # Total ticks spent in databus transfers
system.mem_ctrls.avgQLat                     17028.62                       # Average queueing delay per DRAM burst
system.mem_ctrls.avgBusLat                    5000.00                       # Average bus latency per DRAM burst
system.mem_ctrls.avgMemAccLat                35778.62                       # Average memory access latency per DRAM burst
system.mem_ctrls.avgRdBW                        23.81                       # Average DRAM read bandwidth in MiByte/s
system.mem_ctrls.avgWrBW                        13.01                       # Average achieved write bandwidth in MiByte/s
system.mem_ctrls.avgRdBWSys                     23.83                       # Average system read bandwidth in MiByte/s
system.mem_ctrls.avgWrBWSys                     13.01                       # Average system write bandwidth in MiByte/s
system.mem_ctrls.peakBW                      12800.00                       # Theoretical peak bandwidth in MiByte/s
system.mem_ctrls.busUtil                         0.29                       # Data bus utilization in percentage
system.mem_ctrls.busUtilRead                     0.19                       # Data bus utilization in percentage for reads
system.mem_ctrls.busUtilWrite                    0.10                       # Data bus utilization in percentage for writes
system.mem_ctrls.avgRdQLen                       1.00                       # Average read queue length when enqueuing
system.mem_ctrls.avgWrQLen                      25.52                       # Average write queue length when enqueuing
system.mem_ctrls.readRowHits                   753368                       # Number of row buffer hits during reads
system.mem_ctrls.writeRowHits                  250814                       # Number of row buffer hits during writes
system.mem_ctrls.readRowHitRate                 51.29                       # Row buffer hit rate for reads
system.mem_ctrls.writeRowHitRate                31.25                       # Row buffer hit rate for writes
system.mem_ctrls.avgGap                    1737392.09                       # Average gap between requests
system.mem_ctrls.pageHitRate                    44.21                       # Row buffer hit rate, read and write combined
system.mem_ctrls_0.actEnergy               4881204720                       # Energy for activate commands per rank (pJ)
system.mem_ctrls_0.preEnergy               2663355750                       # Energy for precharge commands per rank (pJ)
system.mem_ctrls_0.readEnergy              5854960800                       # Energy for read commands per rank (pJ)
system.mem_ctrls_0.writeEnergy             2623188240                       # Energy for write commands per rank (pJ)
system.mem_ctrls_0.refreshEnergy         258114542400                       # Energy for refresh commands per rank (pJ)
system.mem_ctrls_0.actBackEnergy         461440445940                       # Energy for active background per rank (pJ)
system.mem_ctrls_0.preBackEnergy         1966327830000                       # Energy for precharge background per rank (pJ)
system.mem_ctrls_0.totalEnergy           2701905527850                       # Total energy per rank (pJ)
system.mem_ctrls_0.averagePower            683.709339                       # Core power per rank (mW)
system.mem_ctrls_0.memoryStateTime::IDLE 3267236394502                       # Time in different power states
system.mem_ctrls_0.memoryStateTime::REF  131842880000                       # Time in different power states
system.mem_ctrls_0.memoryStateTime::PRE_PDN            0                       # Time in different power states
system.mem_ctrls_0.memoryStateTime::ACT  549235333998                       # Time in different power states
system.mem_ctrls_0.memoryStateTime::ACT_PDN            0                       # Time in different power states
system.mem_ctrls_1.actEnergy               4727744280                       # Energy for activate commands per rank (pJ)
system.mem_ctrls_1.preEnergy               2579622375                       # Energy for precharge commands per rank (pJ)
system.mem_ctrls_1.readEnergy              5722150200                       # Energy for read commands per rank (pJ)
system.mem_ctrls_1.writeEnergy             2577530160                       # Energy for write commands per rank (pJ)
system.mem_ctrls_1.refreshEnergy         258114542400                       # Energy for refresh commands per rank (pJ)
system.mem_ctrls_1.actBackEnergy         458606805795                       # Energy for active background per rank (pJ)
system.mem_ctrls_1.preBackEnergy         1968813479250                       # Energy for precharge background per rank (pJ)
system.mem_ctrls_1.totalEnergy           2701141874460                       # Total energy per rank (pJ)
system.mem_ctrls_1.averagePower            683.516099                       # Core power per rank (mW)
system.mem_ctrls_1.memoryStateTime::IDLE 3271392692750                       # Time in different power states
system.mem_ctrls_1.memoryStateTime::REF  131842880000                       # Time in different power states
system.mem_ctrls_1.memoryStateTime::PRE_PDN            0                       # Time in different power states
system.mem_ctrls_1.memoryStateTime::ACT  545078367250                       # Time in different power states
system.mem_ctrls_1.memoryStateTime::ACT_PDN            0                       # Time in different power states
system.cpu_voltage_domain.voltage                   1                       # Voltage in Volts
system.cpu_clk_domain.clock                       500                       # Clock period in ticks
system.cpu0.apic_clk_domain.clock                8000                       # Clock period in ticks
system.cpu0.numCycles                      7895988322                       # number of cpu cycles simulated
system.cpu0.numWorkItemsStarted                     0                       # number of work items this cpu started
system.cpu0.numWorkItemsCompleted                   0                       # number of work items this cpu completed
system.cpu0.kern.inst.arm                           0                       # number of arm instructions executed
system.cpu0.kern.inst.quiesce                       0                       # number of quiesce instructions executed
system.cpu0.committedInsts                    4171841                       # Number of instructions committed
system.cpu0.committedOps                      8770535                       # Number of ops (including micro ops) committed
system.cpu0.num_int_alu_accesses              8597921                       # Number of integer alu accesses
system.cpu0.num_fp_alu_accesses                  1929                       # Number of float alu accesses
system.cpu0.num_func_calls                     242967                       # number of times a function call or return occured
system.cpu0.num_conditional_control_insts       622981                       # number of instructions that are conditional controls
system.cpu0.num_int_insts                     8597921                       # number of integer instructions
system.cpu0.num_fp_insts                         1929                       # number of float instructions
system.cpu0.num_int_register_reads           17421757                       # number of times the integer registers were read
system.cpu0.num_int_register_writes           7081287                       # number of times the integer registers were written
system.cpu0.num_fp_register_reads                3243                       # number of times the floating registers were read
system.cpu0.num_fp_register_writes               1535                       # number of times the floating registers were written
system.cpu0.num_cc_register_reads             4935791                       # number of times the CC registers were read
system.cpu0.num_cc_register_writes            2730804                       # number of times the CC registers were written
system.cpu0.num_mem_refs                      2048573                       # number of memory refs
system.cpu0.num_load_insts                    1272543                       # Number of load instructions
system.cpu0.num_store_insts                    776030                       # Number of store instructions
system.cpu0.num_idle_cycles              7876188740.199595                       # Number of idle cycles
system.cpu0.num_busy_cycles              19799581.800404                       # Number of busy cycles
system.cpu0.not_idle_fraction                0.002508                       # Percentage of non-idle cycles
system.cpu0.idle_fraction                    0.997492                       # Percentage of idle cycles
system.cpu0.Branches                           938175                       # Number of branches fetched
system.cpu0.op_class::No_OpClass               125316      1.43%      1.43% # Class of executed instruction
system.cpu0.op_class::IntAlu                  6537198     74.54%     75.96% # Class of executed instruction
system.cpu0.op_class::IntMult                   17240      0.20%     76.16% # Class of executed instruction
system.cpu0.op_class::IntDiv                    40841      0.47%     76.63% # Class of executed instruction
system.cpu0.op_class::FloatAdd                   1458      0.02%     76.64% # Class of executed instruction
system.cpu0.op_class::FloatCmp                      0      0.00%     76.64% # Class of executed instruction
system.cpu0.op_class::FloatCvt                      0      0.00%     76.64% # Class of executed instruction
system.cpu0.op_class::FloatMult                     0      0.00%     76.64% # Class of executed instruction
system.cpu0.op_class::FloatDiv                      0      0.00%     76.64% # Class of executed instruction
system.cpu0.op_class::FloatSqrt                     0      0.00%     76.64% # Class of executed instruction
system.cpu0.op_class::SimdAdd                       0      0.00%     76.64% # Class of executed instruction
system.cpu0.op_class::SimdAddAcc                    0      0.00%     76.64% # Class of executed instruction
system.cpu0.op_class::SimdAlu                       0      0.00%     76.64% # Class of executed instruction
system.cpu0.op_class::SimdCmp                       0      0.00%     76.64% # Class of executed instruction
system.cpu0.op_class::SimdCvt                       0      0.00%     76.64% # Class of executed instruction
system.cpu0.op_class::SimdMisc                      0      0.00%     76.64% # Class of executed instruction
system.cpu0.op_class::SimdMult                      0      0.00%     76.64% # Class of executed instruction
system.cpu0.op_class::SimdMultAcc                   0      0.00%     76.64% # Class of executed instruction
system.cpu0.op_class::SimdShift                     0      0.00%     76.64% # Class of executed instruction
system.cpu0.op_class::SimdShiftAcc                  0      0.00%     76.64% # Class of executed instruction
system.cpu0.op_class::SimdSqrt                      0      0.00%     76.64% # Class of executed instruction
system.cpu0.op_class::SimdFloatAdd                  0      0.00%     76.64% # Class of executed instruction
system.cpu0.op_class::SimdFloatAlu                  0      0.00%     76.64% # Class of executed instruction
system.cpu0.op_class::SimdFloatCmp                  0      0.00%     76.64% # Class of executed instruction
system.cpu0.op_class::SimdFloatCvt                  0      0.00%     76.64% # Class of executed instruction
system.cpu0.op_class::SimdFloatDiv                  0      0.00%     76.64% # Class of executed instruction
system.cpu0.op_class::SimdFloatMisc                 0      0.00%     76.64% # Class of executed instruction
system.cpu0.op_class::SimdFloatMult                 0      0.00%     76.64% # Class of executed instruction
system.cpu0.op_class::SimdFloatMultAcc              0      0.00%     76.64% # Class of executed instruction
system.cpu0.op_class::SimdFloatSqrt                 0      0.00%     76.64% # Class of executed instruction
system.cpu0.op_class::MemRead                 1272543     14.51%     91.15% # Class of executed instruction
system.cpu0.op_class::MemWrite                 776030      8.85%    100.00% # Class of executed instruction
system.cpu0.op_class::IprAccess                     0      0.00%    100.00% # Class of executed instruction
system.cpu0.op_class::InstPrefetch                  0      0.00%    100.00% # Class of executed instruction
system.cpu0.op_class::total                   8770626                       # Class of executed instruction
system.cpu1.apic_clk_domain.clock                8000                       # Clock period in ticks
system.cpu1.numCycles                      7896666731                       # number of cpu cycles simulated
system.cpu1.numWorkItemsStarted                     0                       # number of work items this cpu started
system.cpu1.numWorkItemsCompleted                   0                       # number of work items this cpu completed
system.cpu1.kern.inst.arm                           0                       # number of arm instructions executed
system.cpu1.kern.inst.quiesce                       0                       # number of quiesce instructions executed
system.cpu1.committedInsts                    2866693                       # Number of instructions committed
system.cpu1.committedOps                      6175567                       # Number of ops (including micro ops) committed
system.cpu1.num_int_alu_accesses              6038212                       # Number of integer alu accesses
system.cpu1.num_fp_alu_accesses                    39                       # Number of float alu accesses
system.cpu1.num_func_calls                     169190                       # number of times a function call or return occured
system.cpu1.num_conditional_control_insts       436042                       # number of instructions that are conditional controls
system.cpu1.num_int_insts                     6038212                       # number of integer instructions
system.cpu1.num_fp_insts                           39                       # number of float instructions
system.cpu1.num_int_register_reads           12282812                       # number of times the integer registers were read
system.cpu1.num_int_register_writes           5011937                       # number of times the integer registers were written
system.cpu1.num_fp_register_reads                  63                       # number of times the floating registers were read
system.cpu1.num_fp_register_writes                 31                       # number of times the floating registers were written
system.cpu1.num_cc_register_reads             3489278                       # number of times the CC registers were read
system.cpu1.num_cc_register_writes            1827777                       # number of times the CC registers were written
system.cpu1.num_mem_refs                      1470824                       # number of memory refs
system.cpu1.num_load_insts                     913242                       # Number of load instructions
system.cpu1.num_store_insts                    557582                       # Number of store instructions
system.cpu1.num_idle_cycles              7883035000.868343                       # Number of idle cycles
system.cpu1.num_busy_cycles              13631730.131657                       # Number of busy cycles
system.cpu1.not_idle_fraction                0.001726                       # Percentage of non-idle cycles
system.cpu1.idle_fraction                    0.998274                       # Percentage of idle cycles
system.cpu1.Branches                           660594                       # Number of branches fetched
system.cpu1.op_class::No_OpClass               117556      1.90%      1.90% # Class of executed instruction
system.cpu1.op_class::IntAlu                  4532765     73.40%     75.30% # Class of executed instruction
system.cpu1.op_class::IntMult                   12422      0.20%     75.50% # Class of executed instruction
system.cpu1.op_class::IntDiv                    41992      0.68%     76.18% # Class of executed instruction
system.cpu1.op_class::FloatAdd                     30      0.00%     76.18% # Class of executed instruction
system.cpu1.op_class::FloatCmp                      0      0.00%     76.18% # Class of executed instruction
system.cpu1.op_class::FloatCvt                      0      0.00%     76.18% # Class of executed instruction
system.cpu1.op_class::FloatMult                     0      0.00%     76.18% # Class of executed instruction
system.cpu1.op_class::FloatDiv                      0      0.00%     76.18% # Class of executed instruction
system.cpu1.op_class::FloatSqrt                     0      0.00%     76.18% # Class of executed instruction
system.cpu1.op_class::SimdAdd                       0      0.00%     76.18% # Class of executed instruction
system.cpu1.op_class::SimdAddAcc                    0      0.00%     76.18% # Class of executed instruction
system.cpu1.op_class::SimdAlu                       0      0.00%     76.18% # Class of executed instruction
system.cpu1.op_class::SimdCmp                       0      0.00%     76.18% # Class of executed instruction
system.cpu1.op_class::SimdCvt                       0      0.00%     76.18% # Class of executed instruction
system.cpu1.op_class::SimdMisc                      0      0.00%     76.18% # Class of executed instruction
system.cpu1.op_class::SimdMult                      0      0.00%     76.18% # Class of executed instruction
system.cpu1.op_class::SimdMultAcc                   0      0.00%     76.18% # Class of executed instruction
system.cpu1.op_class::SimdShift                     0      0.00%     76.18% # Class of executed instruction
system.cpu1.op_class::SimdShiftAcc                  0      0.00%     76.18% # Class of executed instruction
system.cpu1.op_class::SimdSqrt                      0      0.00%     76.18% # Class of executed instruction
system.cpu1.op_class::SimdFloatAdd                  0      0.00%     76.18% # Class of executed instruction
system.cpu1.op_class::SimdFloatAlu                  0      0.00%     76.18% # Class of executed instruction
system.cpu1.op_class::SimdFloatCmp                  0      0.00%     76.18% # Class of executed instruction
system.cpu1.op_class::SimdFloatCvt                  0      0.00%     76.18% # Class of executed instruction
system.cpu1.op_class::SimdFloatDiv                  0      0.00%     76.18% # Class of executed instruction
system.cpu1.op_class::SimdFloatMisc                 0      0.00%     76.18% # Class of executed instruction
system.cpu1.op_class::SimdFloatMult                 0      0.00%     76.18% # Class of executed instruction
system.cpu1.op_class::SimdFloatMultAcc              0      0.00%     76.18% # Class of executed instruction
system.cpu1.op_class::SimdFloatSqrt                 0      0.00%     76.18% # Class of executed instruction
system.cpu1.op_class::MemRead                  913242     14.79%     90.97% # Class of executed instruction
system.cpu1.op_class::MemWrite                 557582      9.03%    100.00% # Class of executed instruction
system.cpu1.op_class::IprAccess                     0      0.00%    100.00% # Class of executed instruction
system.cpu1.op_class::InstPrefetch                  0      0.00%    100.00% # Class of executed instruction
system.cpu1.op_class::total                   6175589                       # Class of executed instruction
system.cpu2.apic_clk_domain.clock                8000                       # Clock period in ticks
system.cpu2.numCycles                      7897596701                       # number of cpu cycles simulated
system.cpu2.numWorkItemsStarted                     0                       # number of work items this cpu started
system.cpu2.numWorkItemsCompleted                   0                       # number of work items this cpu completed
system.cpu2.kern.inst.arm                           0                       # number of arm instructions executed
system.cpu2.kern.inst.quiesce                       0                       # number of quiesce instructions executed
system.cpu2.committedInsts                 2239443724                       # Number of instructions committed
system.cpu2.committedOps                   3131851923                       # Number of ops (including micro ops) committed
system.cpu2.num_int_alu_accesses           1364897204                       # Number of integer alu accesses
system.cpu2.num_fp_alu_accesses            2127680265                       # Number of float alu accesses
system.cpu2.num_func_calls                    4833341                       # number of times a function call or return occured
system.cpu2.num_conditional_control_insts    125338910                       # number of instructions that are conditional controls
system.cpu2.num_int_insts                  1364897204                       # number of integer instructions
system.cpu2.num_fp_insts                   2127680265                       # number of float instructions
system.cpu2.num_int_register_reads         2745301035                       # number of times the integer registers were read
system.cpu2.num_int_register_writes         828393731                       # number of times the integer registers were written
system.cpu2.num_fp_register_reads          4601234005                       # number of times the floating registers were read
system.cpu2.num_fp_register_writes         2077617833                       # number of times the floating registers were written
system.cpu2.num_cc_register_reads           735873607                       # number of times the CC registers were read
system.cpu2.num_cc_register_writes          430122542                       # number of times the CC registers were written
system.cpu2.num_mem_refs                    408306131                       # number of memory refs
system.cpu2.num_load_insts                  353594706                       # Number of load instructions
system.cpu2.num_store_insts                  54711425                       # Number of store instructions
system.cpu2.num_idle_cycles              5057482.890308                       # Number of idle cycles
system.cpu2.num_busy_cycles              7892539218.109693                       # Number of busy cycles
system.cpu2.not_idle_fraction                0.999360                       # Percentage of non-idle cycles
system.cpu2.idle_fraction                    0.000640                       # Percentage of idle cycles
system.cpu2.Branches                        163300275                       # Number of branches fetched
system.cpu2.op_class::No_OpClass              2281737      0.07%      0.07% # Class of executed instruction
system.cpu2.op_class::IntAlu               1676599147     53.53%     53.61% # Class of executed instruction
system.cpu2.op_class::IntMult                   78948      0.00%     53.61% # Class of executed instruction
system.cpu2.op_class::IntDiv                    98971      0.00%     53.61% # Class of executed instruction
system.cpu2.op_class::FloatAdd             1044495651     33.35%     86.96% # Class of executed instruction
system.cpu2.op_class::FloatCmp                      0      0.00%     86.96% # Class of executed instruction
system.cpu2.op_class::FloatCvt                      0      0.00%     86.96% # Class of executed instruction
system.cpu2.op_class::FloatMult                     0      0.00%     86.96% # Class of executed instruction
system.cpu2.op_class::FloatDiv                      0      0.00%     86.96% # Class of executed instruction
system.cpu2.op_class::FloatSqrt                     0      0.00%     86.96% # Class of executed instruction
system.cpu2.op_class::SimdAdd                       0      0.00%     86.96% # Class of executed instruction
system.cpu2.op_class::SimdAddAcc                    0      0.00%     86.96% # Class of executed instruction
system.cpu2.op_class::SimdAlu                       0      0.00%     86.96% # Class of executed instruction
system.cpu2.op_class::SimdCmp                       0      0.00%     86.96% # Class of executed instruction
system.cpu2.op_class::SimdCvt                       0      0.00%     86.96% # Class of executed instruction
system.cpu2.op_class::SimdMisc                      0      0.00%     86.96% # Class of executed instruction
system.cpu2.op_class::SimdMult                      0      0.00%     86.96% # Class of executed instruction
system.cpu2.op_class::SimdMultAcc                   0      0.00%     86.96% # Class of executed instruction
system.cpu2.op_class::SimdShift                     0      0.00%     86.96% # Class of executed instruction
system.cpu2.op_class::SimdShiftAcc                  0      0.00%     86.96% # Class of executed instruction
system.cpu2.op_class::SimdSqrt                      0      0.00%     86.96% # Class of executed instruction
system.cpu2.op_class::SimdFloatAdd                  0      0.00%     86.96% # Class of executed instruction
system.cpu2.op_class::SimdFloatAlu                  0      0.00%     86.96% # Class of executed instruction
system.cpu2.op_class::SimdFloatCmp                  0      0.00%     86.96% # Class of executed instruction
system.cpu2.op_class::SimdFloatCvt                  0      0.00%     86.96% # Class of executed instruction
system.cpu2.op_class::SimdFloatDiv                  0      0.00%     86.96% # Class of executed instruction
system.cpu2.op_class::SimdFloatMisc                 0      0.00%     86.96% # Class of executed instruction
system.cpu2.op_class::SimdFloatMult                 0      0.00%     86.96% # Class of executed instruction
system.cpu2.op_class::SimdFloatMultAcc              0      0.00%     86.96% # Class of executed instruction
system.cpu2.op_class::SimdFloatSqrt                 0      0.00%     86.96% # Class of executed instruction
system.cpu2.op_class::MemRead               353594706     11.29%     98.25% # Class of executed instruction
system.cpu2.op_class::MemWrite               54711425      1.75%    100.00% # Class of executed instruction
system.cpu2.op_class::IprAccess                     0      0.00%    100.00% # Class of executed instruction
system.cpu2.op_class::InstPrefetch                  0      0.00%    100.00% # Class of executed instruction
system.cpu2.op_class::total                3131860585                       # Class of executed instruction
system.cpu3.apic_clk_domain.clock                8000                       # Clock period in ticks
system.cpu3.numCycles                      7897120072                       # number of cpu cycles simulated
system.cpu3.numWorkItemsStarted                     0                       # number of work items this cpu started
system.cpu3.numWorkItemsCompleted                   0                       # number of work items this cpu completed
system.cpu3.kern.inst.arm                           0                       # number of arm instructions executed
system.cpu3.kern.inst.quiesce                       0                       # number of quiesce instructions executed
system.cpu3.committedInsts                    2794549                       # Number of instructions committed
system.cpu3.committedOps                      6036501                       # Number of ops (including micro ops) committed
system.cpu3.num_int_alu_accesses              5902447                       # Number of integer alu accesses
system.cpu3.num_fp_alu_accesses                     0                       # Number of float alu accesses
system.cpu3.num_func_calls                     166180                       # number of times a function call or return occured
system.cpu3.num_conditional_control_insts       424645                       # number of instructions that are conditional controls
system.cpu3.num_int_insts                     5902447                       # number of integer instructions
system.cpu3.num_fp_insts                            0                       # number of float instructions
system.cpu3.num_int_register_reads           12000115                       # number of times the integer registers were read
system.cpu3.num_int_register_writes           4903540                       # number of times the integer registers were written
system.cpu3.num_fp_register_reads                   0                       # number of times the floating registers were read
system.cpu3.num_fp_register_writes                  0                       # number of times the floating registers were written
system.cpu3.num_cc_register_reads             3403947                       # number of times the CC registers were read
system.cpu3.num_cc_register_writes            1783801                       # number of times the CC registers were written
system.cpu3.num_mem_refs                      1435668                       # number of memory refs
system.cpu3.num_load_insts                     892473                       # Number of load instructions
system.cpu3.num_store_insts                    543195                       # Number of store instructions
system.cpu3.num_idle_cycles              7884105361.331835                       # Number of idle cycles
system.cpu3.num_busy_cycles              13014710.668165                       # Number of busy cycles
system.cpu3.not_idle_fraction                0.001648                       # Percentage of non-idle cycles
system.cpu3.idle_fraction                    0.998352                       # Percentage of idle cycles
system.cpu3.Branches                           645142                       # Number of branches fetched
system.cpu3.op_class::No_OpClass               115080      1.91%      1.91% # Class of executed instruction
system.cpu3.op_class::IntAlu                  4431615     73.41%     75.32% # Class of executed instruction
system.cpu3.op_class::IntMult                   12267      0.20%     75.52% # Class of executed instruction
system.cpu3.op_class::IntDiv                    41874      0.69%     76.22% # Class of executed instruction
system.cpu3.op_class::FloatAdd                      0      0.00%     76.22% # Class of executed instruction
system.cpu3.op_class::FloatCmp                      0      0.00%     76.22% # Class of executed instruction
system.cpu3.op_class::FloatCvt                      0      0.00%     76.22% # Class of executed instruction
system.cpu3.op_class::FloatMult                     0      0.00%     76.22% # Class of executed instruction
system.cpu3.op_class::FloatDiv                      0      0.00%     76.22% # Class of executed instruction
system.cpu3.op_class::FloatSqrt                     0      0.00%     76.22% # Class of executed instruction
system.cpu3.op_class::SimdAdd                       0      0.00%     76.22% # Class of executed instruction
system.cpu3.op_class::SimdAddAcc                    0      0.00%     76.22% # Class of executed instruction
system.cpu3.op_class::SimdAlu                       0      0.00%     76.22% # Class of executed instruction
system.cpu3.op_class::SimdCmp                       0      0.00%     76.22% # Class of executed instruction
system.cpu3.op_class::SimdCvt                       0      0.00%     76.22% # Class of executed instruction
system.cpu3.op_class::SimdMisc                      0      0.00%     76.22% # Class of executed instruction
system.cpu3.op_class::SimdMult                      0      0.00%     76.22% # Class of executed instruction
system.cpu3.op_class::SimdMultAcc                   0      0.00%     76.22% # Class of executed instruction
system.cpu3.op_class::SimdShift                     0      0.00%     76.22% # Class of executed instruction
system.cpu3.op_class::SimdShiftAcc                  0      0.00%     76.22% # Class of executed instruction
system.cpu3.op_class::SimdSqrt                      0      0.00%     76.22% # Class of executed instruction
system.cpu3.op_class::SimdFloatAdd                  0      0.00%     76.22% # Class of executed instruction
system.cpu3.op_class::SimdFloatAlu                  0      0.00%     76.22% # Class of executed instruction
system.cpu3.op_class::SimdFloatCmp                  0      0.00%     76.22% # Class of executed instruction
system.cpu3.op_class::SimdFloatCvt                  0      0.00%     76.22% # Class of executed instruction
system.cpu3.op_class::SimdFloatDiv                  0      0.00%     76.22% # Class of executed instruction
system.cpu3.op_class::SimdFloatMisc                 0      0.00%     76.22% # Class of executed instruction
system.cpu3.op_class::SimdFloatMult                 0      0.00%     76.22% # Class of executed instruction
system.cpu3.op_class::SimdFloatMultAcc              0      0.00%     76.22% # Class of executed instruction
system.cpu3.op_class::SimdFloatSqrt                 0      0.00%     76.22% # Class of executed instruction
system.cpu3.op_class::MemRead                  892473     14.78%     91.00% # Class of executed instruction
system.cpu3.op_class::MemWrite                 543195      9.00%    100.00% # Class of executed instruction
system.cpu3.op_class::IprAccess                     0      0.00%    100.00% # Class of executed instruction
system.cpu3.op_class::InstPrefetch                  0      0.00%    100.00% # Class of executed instruction
system.cpu3.op_class::total                   6036504                       # Class of executed instruction
system.iobus.trans_dist::ReadReq                  198                       # Transaction distribution
system.iobus.trans_dist::ReadResp                 198                       # Transaction distribution
system.iobus.trans_dist::WriteReq                4087                       # Transaction distribution
system.iobus.trans_dist::WriteResp               4087                       # Transaction distribution
system.iobus.trans_dist::MessageReq                19                       # Transaction distribution
system.iobus.trans_dist::MessageResp               19                       # Transaction distribution
system.iobus.pkt_count_system.pc.south_bridge.io_apic.int_master::system.ruby.l1_cntrl0.sequencer.pio-slave-port            6                       # Packet count per connected master and slave (bytes)
system.iobus.pkt_count_system.pc.south_bridge.io_apic.int_master::system.ruby.l1_cntrl1.sequencer.pio-slave-port            4                       # Packet count per connected master and slave (bytes)
system.iobus.pkt_count_system.pc.south_bridge.io_apic.int_master::system.ruby.l1_cntrl2.sequencer.pio-slave-port            4                       # Packet count per connected master and slave (bytes)
system.iobus.pkt_count_system.pc.south_bridge.io_apic.int_master::system.ruby.l1_cntrl3.sequencer.pio-slave-port            6                       # Packet count per connected master and slave (bytes)
system.iobus.pkt_count_system.pc.south_bridge.io_apic.int_master::total           20                       # Packet count per connected master and slave (bytes)
system.iobus.pkt_count_system.ruby.l1_cntrl0.sequencer.mem-master-port::system.pc.south_bridge.ide.pio           46                       # Packet count per connected master and slave (bytes)
system.iobus.pkt_count_system.ruby.l1_cntrl0.sequencer.mem-master-port::system.pc.south_bridge.io_apic.pio           16                       # Packet count per connected master and slave (bytes)
system.iobus.pkt_count_system.ruby.l1_cntrl0.sequencer.mem-master-port::system.ruby.l1_cntrl0.sequencer.pio-slave-port         2002                       # Packet count per connected master and slave (bytes)
system.iobus.pkt_count_system.ruby.l1_cntrl0.sequencer.mem-master-port::system.ruby.l1_cntrl1.sequencer.pio-slave-port            2                       # Packet count per connected master and slave (bytes)
system.iobus.pkt_count_system.ruby.l1_cntrl0.sequencer.mem-master-port::system.ruby.l1_cntrl2.sequencer.pio-slave-port            2                       # Packet count per connected master and slave (bytes)
system.iobus.pkt_count_system.ruby.l1_cntrl0.sequencer.mem-master-port::system.ruby.l1_cntrl3.sequencer.pio-slave-port            2                       # Packet count per connected master and slave (bytes)
system.iobus.pkt_count_system.ruby.l1_cntrl0.sequencer.mem-master-port::total         2070                       # Packet count per connected master and slave (bytes)
system.iobus.pkt_count_system.ruby.l1_cntrl1.sequencer.mem-master-port::system.pc.south_bridge.ide.pio           12                       # Packet count per connected master and slave (bytes)
system.iobus.pkt_count_system.ruby.l1_cntrl1.sequencer.mem-master-port::system.pc.south_bridge.io_apic.pio            8                       # Packet count per connected master and slave (bytes)
system.iobus.pkt_count_system.ruby.l1_cntrl1.sequencer.mem-master-port::system.pc.com_1.pio            4                       # Packet count per connected master and slave (bytes)
system.iobus.pkt_count_system.ruby.l1_cntrl1.sequencer.mem-master-port::system.ruby.l1_cntrl1.sequencer.pio-slave-port         1992                       # Packet count per connected master and slave (bytes)
system.iobus.pkt_count_system.ruby.l1_cntrl1.sequencer.mem-master-port::system.ruby.l1_cntrl2.sequencer.pio-slave-port            2                       # Packet count per connected master and slave (bytes)
system.iobus.pkt_count_system.ruby.l1_cntrl1.sequencer.mem-master-port::total         2018                       # Packet count per connected master and slave (bytes)
system.iobus.pkt_count_system.ruby.l1_cntrl2.sequencer.mem-master-port::system.pc.south_bridge.ide.pio           34                       # Packet count per connected master and slave (bytes)
system.iobus.pkt_count_system.ruby.l1_cntrl2.sequencer.mem-master-port::system.pc.south_bridge.io_apic.pio           14                       # Packet count per connected master and slave (bytes)
system.iobus.pkt_count_system.ruby.l1_cntrl2.sequencer.mem-master-port::system.pc.com_1.pio          174                       # Packet count per connected master and slave (bytes)
system.iobus.pkt_count_system.ruby.l1_cntrl2.sequencer.mem-master-port::system.ruby.l1_cntrl1.sequencer.pio-slave-port            6                       # Packet count per connected master and slave (bytes)
system.iobus.pkt_count_system.ruby.l1_cntrl2.sequencer.mem-master-port::system.ruby.l1_cntrl2.sequencer.pio-slave-port         2006                       # Packet count per connected master and slave (bytes)
system.iobus.pkt_count_system.ruby.l1_cntrl2.sequencer.mem-master-port::system.ruby.l1_cntrl3.sequencer.pio-slave-port            2                       # Packet count per connected master and slave (bytes)
system.iobus.pkt_count_system.ruby.l1_cntrl2.sequencer.mem-master-port::total         2236                       # Packet count per connected master and slave (bytes)
system.iobus.pkt_count_system.ruby.l1_cntrl3.sequencer.mem-master-port::system.pc.south_bridge.io_apic.pio           14                       # Packet count per connected master and slave (bytes)
system.iobus.pkt_count_system.ruby.l1_cntrl3.sequencer.mem-master-port::system.pc.com_1.pio          256                       # Packet count per connected master and slave (bytes)
system.iobus.pkt_count_system.ruby.l1_cntrl3.sequencer.mem-master-port::system.ruby.l1_cntrl0.sequencer.pio-slave-port            2                       # Packet count per connected master and slave (bytes)
system.iobus.pkt_count_system.ruby.l1_cntrl3.sequencer.mem-master-port::system.ruby.l1_cntrl3.sequencer.pio-slave-port         1992                       # Packet count per connected master and slave (bytes)
system.iobus.pkt_count_system.ruby.l1_cntrl3.sequencer.mem-master-port::total         2264                       # Packet count per connected master and slave (bytes)
system.iobus.pkt_count::total                    8608                       # Packet count per connected master and slave (bytes)
system.iobus.pkt_size_system.pc.south_bridge.io_apic.int_master::system.ruby.l1_cntrl0.sequencer.pio-slave-port           12                       # Cumulative packet size per connected master and slave (bytes)
system.iobus.pkt_size_system.pc.south_bridge.io_apic.int_master::system.ruby.l1_cntrl1.sequencer.pio-slave-port            8                       # Cumulative packet size per connected master and slave (bytes)
system.iobus.pkt_size_system.pc.south_bridge.io_apic.int_master::system.ruby.l1_cntrl2.sequencer.pio-slave-port            8                       # Cumulative packet size per connected master and slave (bytes)
system.iobus.pkt_size_system.pc.south_bridge.io_apic.int_master::system.ruby.l1_cntrl3.sequencer.pio-slave-port           12                       # Cumulative packet size per connected master and slave (bytes)
system.iobus.pkt_size_system.pc.south_bridge.io_apic.int_master::total           40                       # Cumulative packet size per connected master and slave (bytes)
system.iobus.pkt_size_system.ruby.l1_cntrl0.sequencer.mem-master-port::system.pc.south_bridge.ide.pio           26                       # Cumulative packet size per connected master and slave (bytes)
system.iobus.pkt_size_system.ruby.l1_cntrl0.sequencer.mem-master-port::system.pc.south_bridge.io_apic.pio           32                       # Cumulative packet size per connected master and slave (bytes)
system.iobus.pkt_size_system.ruby.l1_cntrl0.sequencer.mem-master-port::system.ruby.l1_cntrl0.sequencer.pio-slave-port         4004                       # Cumulative packet size per connected master and slave (bytes)
system.iobus.pkt_size_system.ruby.l1_cntrl0.sequencer.mem-master-port::system.ruby.l1_cntrl1.sequencer.pio-slave-port            4                       # Cumulative packet size per connected master and slave (bytes)
system.iobus.pkt_size_system.ruby.l1_cntrl0.sequencer.mem-master-port::system.ruby.l1_cntrl2.sequencer.pio-slave-port            4                       # Cumulative packet size per connected master and slave (bytes)
system.iobus.pkt_size_system.ruby.l1_cntrl0.sequencer.mem-master-port::system.ruby.l1_cntrl3.sequencer.pio-slave-port            4                       # Cumulative packet size per connected master and slave (bytes)
system.iobus.pkt_size_system.ruby.l1_cntrl0.sequencer.mem-master-port::total         4074                       # Cumulative packet size per connected master and slave (bytes)
system.iobus.pkt_size_system.ruby.l1_cntrl1.sequencer.mem-master-port::system.pc.south_bridge.ide.pio            6                       # Cumulative packet size per connected master and slave (bytes)
system.iobus.pkt_size_system.ruby.l1_cntrl1.sequencer.mem-master-port::system.pc.south_bridge.io_apic.pio           16                       # Cumulative packet size per connected master and slave (bytes)
system.iobus.pkt_size_system.ruby.l1_cntrl1.sequencer.mem-master-port::system.pc.com_1.pio            2                       # Cumulative packet size per connected master and slave (bytes)
system.iobus.pkt_size_system.ruby.l1_cntrl1.sequencer.mem-master-port::system.ruby.l1_cntrl1.sequencer.pio-slave-port         3984                       # Cumulative packet size per connected master and slave (bytes)
system.iobus.pkt_size_system.ruby.l1_cntrl1.sequencer.mem-master-port::system.ruby.l1_cntrl2.sequencer.pio-slave-port            4                       # Cumulative packet size per connected master and slave (bytes)
system.iobus.pkt_size_system.ruby.l1_cntrl1.sequencer.mem-master-port::total         4012                       # Cumulative packet size per connected master and slave (bytes)
system.iobus.pkt_size_system.ruby.l1_cntrl2.sequencer.mem-master-port::system.pc.south_bridge.ide.pio           20                       # Cumulative packet size per connected master and slave (bytes)
system.iobus.pkt_size_system.ruby.l1_cntrl2.sequencer.mem-master-port::system.pc.south_bridge.io_apic.pio           28                       # Cumulative packet size per connected master and slave (bytes)
system.iobus.pkt_size_system.ruby.l1_cntrl2.sequencer.mem-master-port::system.pc.com_1.pio           87                       # Cumulative packet size per connected master and slave (bytes)
system.iobus.pkt_size_system.ruby.l1_cntrl2.sequencer.mem-master-port::system.ruby.l1_cntrl1.sequencer.pio-slave-port           12                       # Cumulative packet size per connected master and slave (bytes)
system.iobus.pkt_size_system.ruby.l1_cntrl2.sequencer.mem-master-port::system.ruby.l1_cntrl2.sequencer.pio-slave-port         4012                       # Cumulative packet size per connected master and slave (bytes)
system.iobus.pkt_size_system.ruby.l1_cntrl2.sequencer.mem-master-port::system.ruby.l1_cntrl3.sequencer.pio-slave-port            4                       # Cumulative packet size per connected master and slave (bytes)
system.iobus.pkt_size_system.ruby.l1_cntrl2.sequencer.mem-master-port::total         4163                       # Cumulative packet size per connected master and slave (bytes)
system.iobus.pkt_size_system.ruby.l1_cntrl3.sequencer.mem-master-port::system.pc.south_bridge.io_apic.pio           28                       # Cumulative packet size per connected master and slave (bytes)
system.iobus.pkt_size_system.ruby.l1_cntrl3.sequencer.mem-master-port::system.pc.com_1.pio          128                       # Cumulative packet size per connected master and slave (bytes)
system.iobus.pkt_size_system.ruby.l1_cntrl3.sequencer.mem-master-port::system.ruby.l1_cntrl0.sequencer.pio-slave-port            4                       # Cumulative packet size per connected master and slave (bytes)
system.iobus.pkt_size_system.ruby.l1_cntrl3.sequencer.mem-master-port::system.ruby.l1_cntrl3.sequencer.pio-slave-port         3984                       # Cumulative packet size per connected master and slave (bytes)
system.iobus.pkt_size_system.ruby.l1_cntrl3.sequencer.mem-master-port::total         4144                       # Cumulative packet size per connected master and slave (bytes)
system.iobus.pkt_size::total                    16433                       # Cumulative packet size per connected master and slave (bytes)
system.iobus.reqLayer2.occupancy                84000                       # Layer occupancy (ticks)
system.iobus.reqLayer2.utilization                0.0                       # Layer utilization (%)
system.iobus.reqLayer8.occupancy                45494                       # Layer occupancy (ticks)
system.iobus.reqLayer8.utilization                0.0                       # Layer utilization (%)
system.iobus.reqLayer12.occupancy              276000                       # Layer occupancy (ticks)
system.iobus.reqLayer12.utilization               0.0                       # Layer utilization (%)
system.iobus.reqLayer17.occupancy             2424997                       # Layer occupancy (ticks)
system.iobus.reqLayer17.utilization               0.0                       # Layer utilization (%)
system.iobus.reqLayer18.occupancy             2409999                       # Layer occupancy (ticks)
system.iobus.reqLayer18.utilization               0.0                       # Layer utilization (%)
system.iobus.reqLayer19.occupancy             2754013                       # Layer occupancy (ticks)
system.iobus.reqLayer19.utilization               0.0                       # Layer utilization (%)
system.iobus.reqLayer20.occupancy             2397000                       # Layer occupancy (ticks)
system.iobus.reqLayer20.utilization               0.0                       # Layer utilization (%)
system.iobus.respLayer0.occupancy               14498                       # Layer occupancy (ticks)
system.iobus.respLayer0.utilization               0.0                       # Layer utilization (%)
system.iobus.respLayer2.occupancy             1550500                       # Layer occupancy (ticks)
system.iobus.respLayer2.utilization               0.0                       # Layer utilization (%)
system.iobus.respLayer4.occupancy             1514000                       # Layer occupancy (ticks)
system.iobus.respLayer4.utilization               0.0                       # Layer utilization (%)
system.iobus.respLayer6.occupancy             1696000                       # Layer occupancy (ticks)
system.iobus.respLayer6.utilization               0.0                       # Layer utilization (%)
system.iobus.respLayer8.occupancy             1730000                       # Layer occupancy (ticks)
system.iobus.respLayer8.utilization               0.0                       # Layer utilization (%)
system.pc.south_bridge.ide.disks.dma_read_full_pages            1                       # Number of full page size DMA reads (not PRD).
system.pc.south_bridge.ide.disks.dma_read_bytes         4096                       # Number of bytes transfered via DMA reads (not PRD).
system.pc.south_bridge.ide.disks.dma_read_txs            1                       # Number of DMA read transactions (not PRD).
system.pc.south_bridge.ide.disks.dma_write_full_pages           24                       # Number of full page size DMA writes.
system.pc.south_bridge.ide.disks.dma_write_bytes        98304                       # Number of bytes transfered via DMA writes.
system.pc.south_bridge.ide.disks.dma_write_txs           24                       # Number of DMA write transactions.
system.ruby.clk_domain.clock                      500                       # Clock period in ticks
system.ruby.delayHist::bucket_size                  4                       # delay histogram for all message
system.ruby.delayHist::max_bucket                  39                       # delay histogram for all message
system.ruby.delayHist::samples               40895420                       # delay histogram for all message
system.ruby.delayHist::mean                  0.284221                       # delay histogram for all message
system.ruby.delayHist::stdev                 1.478860                       # delay histogram for all message
system.ruby.delayHist                    |    39448076     96.46%     96.46% |        2991      0.01%     96.47% |     1443948      3.53%    100.00% |         114      0.00%    100.00% |         273      0.00%    100.00% |           4      0.00%    100.00% |          11      0.00%    100.00% |           3      0.00%    100.00% |           0      0.00%    100.00% |           0      0.00%    100.00% # delay histogram for all message
system.ruby.delayHist::total                 40895420                       # delay histogram for all message
system.ruby.outstanding_req_hist_seqr::bucket_size            1                      
system.ruby.outstanding_req_hist_seqr::max_bucket            9                      
system.ruby.outstanding_req_hist_seqr::samples   3806176821                      
system.ruby.outstanding_req_hist_seqr::mean     1.000000                      
system.ruby.outstanding_req_hist_seqr::gmean     1.000000                      
system.ruby.outstanding_req_hist_seqr::stdev     0.000236                      
system.ruby.outstanding_req_hist_seqr    |           0      0.00%      0.00% |  3806176609    100.00%    100.00% |         212      0.00%    100.00% |           0      0.00%    100.00% |           0      0.00%    100.00% |           0      0.00%    100.00% |           0      0.00%    100.00% |           0      0.00%    100.00% |           0      0.00%    100.00% |           0      0.00%    100.00%
system.ruby.outstanding_req_hist_seqr::total   3806176821                      
system.ruby.latency_hist_seqr::bucket_size          256                      
system.ruby.latency_hist_seqr::max_bucket         2559                      
system.ruby.latency_hist_seqr::samples     3806176821                      
system.ruby.latency_hist_seqr::mean          1.085318                      
system.ruby.latency_hist_seqr::gmean         1.006824                      
system.ruby.latency_hist_seqr::stdev         3.385642                      
system.ruby.latency_hist_seqr            |  3806100437    100.00%    100.00% |       53620      0.00%    100.00% |       21881      0.00%    100.00% |         481      0.00%    100.00% |         378      0.00%    100.00% |          23      0.00%    100.00% |           1      0.00%    100.00% |           0      0.00%    100.00% |           0      0.00%    100.00% |           0      0.00%    100.00%
system.ruby.latency_hist_seqr::total       3806176821                      
system.ruby.hit_latency_hist_seqr::bucket_size            1                      
system.ruby.hit_latency_hist_seqr::max_bucket            9                      
system.ruby.hit_latency_hist_seqr::samples   3798196355                      
system.ruby.hit_latency_hist_seqr::mean             1                      
[...]
system.ruby.DMA_Controller.Data::total             91                      
system.ruby.DMA_Controller.Ack           |        1664    100.00%    100.00% |           0      0.00%    100.00%
system.ruby.DMA_Controller.Ack::total            1664                      
system.ruby.DMA_Controller.READY.ReadRequest |          91    100.00%    100.00% |           0      0.00%    100.00%
system.ruby.DMA_Controller.READY.ReadRequest::total           91                      
system.ruby.DMA_Controller.READY.WriteRequest |        1664    100.00%    100.00% |           0      0.00%    100.00%
system.ruby.DMA_Controller.READY.WriteRequest::total         1664                      
system.ruby.DMA_Controller.BUSY_RD.Data  |          91    100.00%    100.00% |           0      0.00%    100.00%
system.ruby.DMA_Controller.BUSY_RD.Data::total           91                      
system.ruby.DMA_Controller.BUSY_WR.Ack   |        1664    100.00%    100.00% |           0      0.00%    100.00%
system.ruby.DMA_Controller.BUSY_WR.Ack::total         1664                      
system.ruby.L1Cache_Controller.Load      |     1997204      0.55%      0.55% |     1153521      0.32%      0.86% |   360098196     98.68%     99.55% |     1651310      0.45%    100.00%
system.ruby.L1Cache_Controller.Load::total    364900231                      
system.ruby.L1Cache_Controller.Ifetch    |    10223820      0.00%      0.00% |     5304085      0.00%      0.00% |18446744072788490240    100.00%    100.00% |     8318035      0.00%    100.00%
system.ruby.L1Cache_Controller.Ifetch::total 18446744072812337152                      
system.ruby.L1Cache_Controller.Store     |     1549474      2.63%      2.63% |      847590      1.44%      4.08% |    55194897     93.85%     97.92% |     1220420      2.08%    100.00%
system.ruby.L1Cache_Controller.Store::total     58812381                      
system.ruby.L1Cache_Controller.Inv       |       34804     27.54%     27.54% |       32426     25.66%     53.19% |       26232     20.75%     73.95% |       32930     26.05%    100.00%
system.ruby.L1Cache_Controller.Inv::total       126392                      
system.ruby.L1Cache_Controller.L1_Replacement |      156258      1.93%      1.93% |       89565      1.11%      3.04% |     7720518     95.39%     98.42% |      127527      1.58%    100.00%
system.ruby.L1Cache_Controller.L1_Replacement::total      8093868                      
system.ruby.L1Cache_Controller.Fwd_GETX  |         991     24.87%     24.87% |         835     20.96%     45.83% |         708     17.77%     63.60% |        1450     36.40%    100.00%
system.ruby.L1Cache_Controller.Fwd_GETX::total         3984                      
system.ruby.L1Cache_Controller.Fwd_GETS  |       10707     39.77%     39.77% |        5979     22.21%     61.98% |        1703      6.33%     68.31% |        8531     31.69%    100.00%
system.ruby.L1Cache_Controller.Fwd_GETS::total        26920                      
system.ruby.L1Cache_Controller.Data      |        1187     26.96%     26.96% |        1047     23.78%     50.74% |        1187     26.96%     77.70% |         982     22.30%    100.00%
system.ruby.L1Cache_Controller.Data::total         4403                      
system.ruby.L1Cache_Controller.Data_Exclusive |       40304      0.60%      0.60% |       20506      0.31%      0.91% |     6609470     98.51%     99.41% |       39342      0.59%    100.00%
system.ruby.L1Cache_Controller.Data_Exclusive::total      6709622                      
system.ruby.L1Cache_Controller.DataS_fromL1 |        8236     30.59%     30.59% |       10607     39.40%     70.00% |        1905      7.08%     77.07% |        6172     22.93%    100.00%
system.ruby.L1Cache_Controller.DataS_fromL1::total        26920                      
system.ruby.L1Cache_Controller.Data_all_Acks |      121764      8.60%      8.60% |       76359      5.39%     14.00% |     1116395     78.87%     92.87% |      100907      7.13%    100.00%
system.ruby.L1Cache_Controller.Data_all_Acks::total      1415425                      
system.ruby.L1Cache_Controller.Ack       |       23120     48.50%     48.50% |        7686     16.12%     64.62% |        8546     17.93%     82.54% |        8323     17.46%    100.00%
system.ruby.L1Cache_Controller.Ack::total        47675                      
system.ruby.L1Cache_Controller.Ack_all   |       10402     41.96%     41.96% |        4992     20.14%     62.10% |        3986     16.08%     78.18% |        5410     21.82%    100.00%
system.ruby.L1Cache_Controller.Ack_all::total        24790                      
system.ruby.L1Cache_Controller.WB_Ack    |       58329      0.80%      0.80% |       27263      0.37%      1.17% |     7200664     98.17%     99.34% |       48496      0.66%    100.00%
system.ruby.L1Cache_Controller.WB_Ack::total      7334752                      
system.ruby.L1Cache_Controller.NP.Load   |       55365      0.82%      0.82% |       33716      0.50%      1.31% |     6642050     97.93%     99.24% |       51356      0.76%    100.00%
system.ruby.L1Cache_Controller.NP.Load::total      6782487                      
system.ruby.L1Cache_Controller.NP.Ifetch |       77802     11.62%     11.62% |       43884      6.55%     18.17% |      487934     72.87%     91.05% |       59952      8.95%    100.00%
system.ruby.L1Cache_Controller.NP.Ifetch::total       669572                      
system.ruby.L1Cache_Controller.NP.Store  |       23091      3.60%      3.60% |       12077      1.88%      5.48% |      590534     91.99%     97.46% |       16281      2.54%    100.00%
system.ruby.L1Cache_Controller.NP.Store::total       641983                      
system.ruby.L1Cache_Controller.NP.Inv    |       11601     30.07%     30.07% |        6373     16.52%     46.59% |       13327     34.55%     81.14% |        7276     18.86%    100.00%
system.ruby.L1Cache_Controller.NP.Inv::total        38577                      
system.ruby.L1Cache_Controller.I.Load    |        4951     19.19%     19.19% |        9982     38.68%     57.87% |         558      2.16%     60.03% |       10314     39.97%    100.00%
system.ruby.L1Cache_Controller.I.Load::total        25805                      
system.ruby.L1Cache_Controller.I.Ifetch  |        7328     27.03%     27.03% |        6214     22.92%     49.96% |        7466     27.54%     77.50% |        6098     22.50%    100.00%
system.ruby.L1Cache_Controller.I.Ifetch::total        27106                      
system.ruby.L1Cache_Controller.I.Store   |        2953     31.37%     31.37% |        2643     28.08%     59.45% |         415      4.41%     63.86% |        3402     36.14%    100.00%
system.ruby.L1Cache_Controller.I.Store::total         9413                      
system.ruby.L1Cache_Controller.I.L1_Replacement |        8825     30.02%     30.02% |        8174     27.81%     57.83% |        5023     17.09%     74.91% |        7375     25.09%    100.00%
system.ruby.L1Cache_Controller.I.L1_Replacement::total        29397                      
system.ruby.L1Cache_Controller.S.Load    |      247150     29.40%     29.40% |      213975     25.45%     54.85% |      126943     15.10%     69.95% |      252605     30.05%    100.00%
system.ruby.L1Cache_Controller.S.Load::total       840673                      
system.ruby.L1Cache_Controller.S.Ifetch  |    10138690      0.00%      0.00% |     5253987      0.00%      0.00% |18446744072787994624    100.00%    100.00% |     8251984      0.00%    100.00%
system.ruby.L1Cache_Controller.S.Ifetch::total 18446744072811638784                      
system.ruby.L1Cache_Controller.S.Store   |        9216     45.20%     45.20% |        3948     19.36%     64.56% |        2799     13.73%     78.28% |        4428     21.72%    100.00%
system.ruby.L1Cache_Controller.S.Store::total        20391                      
system.ruby.L1Cache_Controller.S.Inv     |       17434     24.17%     24.17% |       21201     29.39%     53.55% |       12649     17.53%     71.09% |       20860     28.91%    100.00%
system.ruby.L1Cache_Controller.S.Inv::total        72144                      
system.ruby.L1Cache_Controller.S.L1_Replacement |       89104     12.21%     12.21% |       54128      7.42%     19.63% |      514831     70.55%     90.18% |       71656      9.82%    100.00%
system.ruby.L1Cache_Controller.S.L1_Replacement::total       729719                      
system.ruby.L1Cache_Controller.E.Load    |      311701      0.18%      0.18% |      181945      0.11%      0.29% |   168785796     99.52%     99.82% |      313625      0.18%    100.00%
system.ruby.L1Cache_Controller.E.Load::total    169593067                      
system.ruby.L1Cache_Controller.E.Store   |       15556      1.84%      1.84% |        4915      0.58%      2.43% |      810405     96.09%     98.51% |       12538      1.49%    100.00%
system.ruby.L1Cache_Controller.E.Store::total       843414                      
system.ruby.L1Cache_Controller.E.Inv     |        1823     36.70%     36.70% |        1541     31.02%     67.73% |         109      2.19%     69.92% |        1494     30.08%    100.00%
system.ruby.L1Cache_Controller.E.Inv::total         4967                      
system.ruby.L1Cache_Controller.E.L1_Replacement |       20003      0.34%      0.34% |       10696      0.18%      0.52% |     5798366     99.13%     99.66% |       19963      0.34%    100.00%
system.ruby.L1Cache_Controller.E.L1_Replacement::total      5849028                      
system.ruby.L1Cache_Controller.E.Fwd_GETX |         340     49.71%     49.71% |         118     17.25%     66.96% |          74     10.82%     77.78% |         152     22.22%    100.00%
system.ruby.L1Cache_Controller.E.Fwd_GETX::total          684                      
system.ruby.L1Cache_Controller.E.Fwd_GETS |        2720     23.80%     23.80% |        3077     26.92%     50.72% |         455      3.98%     54.70% |        5177     45.30%    100.00%
system.ruby.L1Cache_Controller.E.Fwd_GETS::total        11429                      
system.ruby.L1Cache_Controller.M.Load    |     1378037      0.73%      0.73% |      713903      0.38%      1.11% |   184542849     98.34%     99.45% |     1023410      0.55%    100.00%
system.ruby.L1Cache_Controller.M.Load::total    187658199                      
system.ruby.L1Cache_Controller.M.Store   |     1498658      2.62%      2.62% |      824007      1.44%      4.05% |    53790744     93.88%     97.93% |     1183771      2.07%    100.00%
system.ruby.L1Cache_Controller.M.Store::total     57297180                      
system.ruby.L1Cache_Controller.M.Inv     |        3945     36.87%     36.87% |        3308     30.92%     67.79% |         147      1.37%     69.16% |        3300     30.84%    100.00%
system.ruby.L1Cache_Controller.M.Inv::total        10700                      
system.ruby.L1Cache_Controller.M.L1_Replacement |       38326      2.58%      2.58% |       16567      1.12%      3.69% |     1402298     94.38%     98.08% |       28533      1.92%    100.00%
system.ruby.L1Cache_Controller.M.L1_Replacement::total      1485724                      
system.ruby.L1Cache_Controller.M.Fwd_GETX |         651     19.73%     19.73% |         717     21.73%     41.45% |         634     19.21%     60.67% |        1298     39.33%    100.00%
system.ruby.L1Cache_Controller.M.Fwd_GETX::total         3300                      
system.ruby.L1Cache_Controller.M.Fwd_GETS |        7987     51.56%     51.56% |        2902     18.73%     70.29% |        1248      8.06%     78.35% |        3354     21.65%    100.00%
system.ruby.L1Cache_Controller.M.Fwd_GETS::total        15491                      
system.ruby.L1Cache_Controller.IS.Data_Exclusive |       40304      0.60%      0.60% |       20506      0.31%      0.91% |     6609470     98.51%     99.41% |       39342      0.59%    100.00%
system.ruby.L1Cache_Controller.IS.Data_Exclusive::total      6709622                      
system.ruby.L1Cache_Controller.IS.DataS_fromL1 |        8236     30.59%     30.59% |       10607     39.40%     70.00% |        1905      7.08%     77.07% |        6172     22.93%    100.00%
system.ruby.L1Cache_Controller.IS.DataS_fromL1::total        26920                      
system.ruby.L1Cache_Controller.IS.Data_all_Acks |       96906     12.61%     12.61% |       62683      8.16%     20.77% |      526633     68.53%     89.30% |       82206     10.70%    100.00%
system.ruby.L1Cache_Controller.IS.Data_all_Acks::total       768428                      
system.ruby.L1Cache_Controller.IM.Data   |        1187     26.96%     26.96% |        1047     23.78%     50.74% |        1187     26.96%     77.70% |         982     22.30%    100.00%
system.ruby.L1Cache_Controller.IM.Data::total         4403                      
system.ruby.L1Cache_Controller.IM.Data_all_Acks |       24858      3.84%      3.84% |       13676      2.11%      5.96% |      589762     91.15%     97.11% |       18701      2.89%    100.00%
system.ruby.L1Cache_Controller.IM.Data_all_Acks::total       646997                      
system.ruby.L1Cache_Controller.SM.Inv    |           1     25.00%     25.00% |           3     75.00%    100.00% |           0      0.00%    100.00% |           0      0.00%    100.00%
system.ruby.L1Cache_Controller.SM.Inv::total            4                      
system.ruby.L1Cache_Controller.SM.Ack    |       23120     48.50%     48.50% |        7686     16.12%     64.62% |        8546     17.93%     82.54% |        8323     17.46%    100.00%
system.ruby.L1Cache_Controller.SM.Ack::total        47675                      
system.ruby.L1Cache_Controller.SM.Ack_all |       10402     41.96%     41.96% |        4992     20.14%     62.10% |        3986     16.08%     78.18% |        5410     21.82%    100.00%
system.ruby.L1Cache_Controller.SM.Ack_all::total        24790                      
system.ruby.L1Cache_Controller.M_I.Ifetch |           0      0.00%      0.00% |           0      0.00%      0.00% |           0      0.00%      0.00% |           1    100.00%    100.00%
system.ruby.L1Cache_Controller.M_I.Ifetch::total            1                      
system.ruby.L1Cache_Controller.M_I.WB_Ack |       58329      0.80%      0.80% |       27263      0.37%      1.17% |     7200664     98.17%     99.34% |       48496      0.66%    100.00%
system.ruby.L1Cache_Controller.M_I.WB_Ack::total      7334752                      
system.ruby.L2Cache_Controller.L1_GET_INSTR       696679      0.00%      0.00%
system.ruby.L2Cache_Controller.L1_GETS        6808726      0.00%      0.00%
system.ruby.L2Cache_Controller.L1_GETX         651407      0.00%      0.00%
system.ruby.L2Cache_Controller.L1_UPGRADE        20391      0.00%      0.00%
system.ruby.L2Cache_Controller.L1_PUTX        7334752      0.00%      0.00%
system.ruby.L2Cache_Controller.L2_Replacement       818216      0.00%      0.00%
system.ruby.L2Cache_Controller.L2_Replacement_clean       674169      0.00%      0.00%
system.ruby.L2Cache_Controller.Mem_Data       1509798      0.00%      0.00%
system.ruby.L2Cache_Controller.Mem_Ack        1492392      0.00%      0.00%
system.ruby.L2Cache_Controller.WB_Data          26191      0.00%      0.00%
system.ruby.L2Cache_Controller.WB_Data_clean        11429      0.00%      0.00%
system.ruby.L2Cache_Controller.Ack              29440      0.00%      0.00%
system.ruby.L2Cache_Controller.Ack_all          34174      0.00%      0.00%
system.ruby.L2Cache_Controller.Unblock          26920      0.00%      0.00%
system.ruby.L2Cache_Controller.Exclusive_Unblock      7381409      0.00%      0.00%
system.ruby.L2Cache_Controller.MEM_Inv             14      0.00%      0.00%
system.ruby.L2Cache_Controller.NP.L1_GET_INSTR        29207      0.00%      0.00%
system.ruby.L2Cache_Controller.NP.L1_GETS      1094328      0.00%      0.00%
system.ruby.L2Cache_Controller.NP.L1_GETX       386263      0.00%      0.00%
system.ruby.L2Cache_Controller.SS.L1_GET_INSTR       667453      0.00%      0.00%
system.ruby.L2Cache_Controller.SS.L1_GETS        71690      0.00%      0.00%
system.ruby.L2Cache_Controller.SS.L1_GETX         4403      0.00%      0.00%
system.ruby.L2Cache_Controller.SS.L1_UPGRADE        20387      0.00%      0.00%
system.ruby.L2Cache_Controller.SS.L2_Replacement          449      0.00%      0.00%
system.ruby.L2Cache_Controller.SS.L2_Replacement_clean        28758      0.00%      0.00%
system.ruby.L2Cache_Controller.M.L1_GET_INSTR           18      0.00%      0.00%
system.ruby.L2Cache_Controller.M.L1_GETS      5615324      0.00%      0.00%
system.ruby.L2Cache_Controller.M.L1_GETX       256750      0.00%      0.00%
system.ruby.L2Cache_Controller.M.L2_Replacement       816542      0.00%      0.00%
system.ruby.L2Cache_Controller.M.L2_Replacement_clean       630975      0.00%      0.00%
system.ruby.L2Cache_Controller.M.MEM_Inv            1      0.00%      0.00%
system.ruby.L2Cache_Controller.MT.L1_GETS        26920      0.00%      0.00%
system.ruby.L2Cache_Controller.MT.L1_GETX         3984      0.00%      0.00%
system.ruby.L2Cache_Controller.MT.L1_PUTX      7334752      0.00%      0.00%
system.ruby.L2Cache_Controller.MT.L2_Replacement         1225      0.00%      0.00%
system.ruby.L2Cache_Controller.MT.L2_Replacement_clean        14436      0.00%      0.00%
system.ruby.L2Cache_Controller.MT.MEM_Inv            6      0.00%      0.00%
system.ruby.L2Cache_Controller.M_I.L1_GET_INSTR            1      0.00%      0.00%
system.ruby.L2Cache_Controller.M_I.L1_GETS            2      0.00%      0.00%
system.ruby.L2Cache_Controller.M_I.L1_GETX            2      0.00%      0.00%
system.ruby.L2Cache_Controller.M_I.Mem_Ack      1492392      0.00%      0.00%
system.ruby.L2Cache_Controller.M_I.MEM_Inv            1      0.00%      0.00%
system.ruby.L2Cache_Controller.MT_I.WB_Data         1074      0.00%      0.00%
system.ruby.L2Cache_Controller.MT_I.Ack_all          157      0.00%      0.00%
system.ruby.L2Cache_Controller.MT_I.MEM_Inv            6      0.00%      0.00%
system.ruby.L2Cache_Controller.MCT_I.WB_Data         9626      0.00%      0.00%
system.ruby.L2Cache_Controller.MCT_I.Ack_all         4810      0.00%      0.00%
system.ruby.L2Cache_Controller.I_I.Ack          28838      0.00%      0.00%
system.ruby.L2Cache_Controller.I_I.Ack_all        28758      0.00%      0.00%
system.ruby.L2Cache_Controller.S_I.Ack            602      0.00%      0.00%
system.ruby.L2Cache_Controller.S_I.Ack_all          449      0.00%      0.00%
system.ruby.L2Cache_Controller.ISS.L1_GETS           30      0.00%      0.00%
system.ruby.L2Cache_Controller.ISS.Mem_Data      1094298      0.00%      0.00%
system.ruby.L2Cache_Controller.IS.Mem_Data        29237      0.00%      0.00%
system.ruby.L2Cache_Controller.IM.Mem_Data       386263      0.00%      0.00%
system.ruby.L2Cache_Controller.SS_MB.L1_GETS           63      0.00%      0.00%
system.ruby.L2Cache_Controller.SS_MB.L1_GETX            1      0.00%      0.00%
system.ruby.L2Cache_Controller.SS_MB.L1_UPGRADE            4      0.00%      0.00%
system.ruby.L2Cache_Controller.SS_MB.Exclusive_Unblock        24790      0.00%      0.00%
system.ruby.L2Cache_Controller.MT_MB.L1_GETS          364      0.00%      0.00%
system.ruby.L2Cache_Controller.MT_MB.L1_GETX            3      0.00%      0.00%
system.ruby.L2Cache_Controller.MT_MB.Exclusive_Unblock      7356619      0.00%      0.00%
system.ruby.L2Cache_Controller.MT_IIB.L1_GETS            5      0.00%      0.00%
system.ruby.L2Cache_Controller.MT_IIB.L1_GETX            1      0.00%      0.00%
system.ruby.L2Cache_Controller.MT_IIB.WB_Data        15482      0.00%      0.00%
system.ruby.L2Cache_Controller.MT_IIB.WB_Data_clean        11414      0.00%      0.00%
system.ruby.L2Cache_Controller.MT_IIB.Unblock           24      0.00%      0.00%
system.ruby.L2Cache_Controller.MT_IB.WB_Data            9      0.00%      0.00%
system.ruby.L2Cache_Controller.MT_IB.WB_Data_clean           15      0.00%      0.00%
system.ruby.L2Cache_Controller.MT_SB.Unblock        26896      0.00%      0.00%

---------- End Simulation Statistics   ----------
