
---------- Begin Simulation Statistics ----------
sim_seconds                                  0.462930                       # Number of seconds simulated
sim_ticks                                462929964000                       # Number of ticks simulated
final_tick                               52778808080501                       # Number of ticks from beginning of simulation (restored from checkpoints and never reset)
sim_freq                                 1000000000000                       # Frequency of simulated ticks
host_inst_rate                                 140117                       # Simulator instruction rate (inst/s)
host_op_rate                                   252886                       # Simulator op (including micro ops) rate (op/s)
host_tick_rate                              241185355                       # Simulator tick rate (ticks/s)
host_mem_usage                                1829904                       # Number of bytes of host memory used
host_seconds                                  1919.40                       # Real time elapsed on the host
sim_insts                                   268940106                       # Number of instructions simulated
sim_ops                                     485387562                       # Number of ops (including micro ops) simulated
system.voltage_domain.voltage                       1                       # Voltage in Volts
system.clk_domain.clock                          1000                       # Clock period in ticks
system.mem_ctrls.bytes_read::ruby.dir_cntrl0       469696                       # Number of bytes read from this memory
system.mem_ctrls.bytes_read::total             469696                       # Number of bytes read from this memory
system.mem_ctrls.bytes_written::ruby.dir_cntrl0       210624                       # Number of bytes written to this memory
system.mem_ctrls.bytes_written::total          210624                       # Number of bytes written to this memory
system.mem_ctrls.num_reads::ruby.dir_cntrl0         7339                       # Number of read requests responded to by this memory
system.mem_ctrls.num_reads::total                7339                       # Number of read requests responded to by this memory
system.mem_ctrls.num_writes::ruby.dir_cntrl0         3291                       # Number of write requests responded to by this memory
system.mem_ctrls.num_writes::total               3291                       # Number of write requests responded to by this memory
system.mem_ctrls.bw_read::ruby.dir_cntrl0      1014616                       # Total read bandwidth from this memory (bytes/s)
system.mem_ctrls.bw_read::total               1014616                       # Total read bandwidth from this memory (bytes/s)
system.mem_ctrls.bw_write::ruby.dir_cntrl0       454980                       # Write bandwidth from this memory (bytes/s)
system.mem_ctrls.bw_write::total               454980                       # Write bandwidth from this memory (bytes/s)
system.mem_ctrls.bw_total::ruby.dir_cntrl0      1469596                       # Total bandwidth to/from this memory (bytes/s)
system.mem_ctrls.bw_total::total              1469596                       # Total bandwidth to/from this memory (bytes/s)
system.mem_ctrls.readReqs                        7339                       # Number of read requests accepted
system.mem_ctrls.writeReqs                       3291                       # Number of write requests accepted
system.mem_ctrls.readBursts                      7339                       # Number of DRAM read bursts, including those serviced by the write queue
system.mem_ctrls.writeBursts                     3291                       # Number of DRAM write bursts, including those merged in the write queue
system.mem_ctrls.bytesReadDRAM                 467328                       # Total number of bytes read from DRAM
system.mem_ctrls.bytesReadWrQ                    2368                       # Total number of bytes read from write queue
system.mem_ctrls.bytesWritten                  210304                       # Total number of bytes written to DRAM
system.mem_ctrls.bytesReadSys                  469696                       # Total read bytes from the system interface side
system.mem_ctrls.bytesWrittenSys               210624                       # Total written bytes from the system interface side
system.mem_ctrls.servicedByWrQ                     37                       # Number of DRAM read bursts serviced by the write queue
system.mem_ctrls.mergedWrBursts                     0                       # Number of DRAM write bursts merged with an existing one
system.mem_ctrls.neitherReadNorWriteReqs            0                       # Number of requests that are neither read nor write
system.mem_ctrls.perBankRdBursts::0               506                       # Per bank write bursts
system.mem_ctrls.perBankRdBursts::1               450                       # Per bank write bursts
system.mem_ctrls.perBankRdBursts::2               563                       # Per bank write bursts
system.mem_ctrls.perBankRdBursts::3               363                       # Per bank write bursts
system.mem_ctrls.perBankRdBursts::4               646                       # Per bank write bursts
system.mem_ctrls.perBankRdBursts::5               332                       # Per bank write bursts
system.mem_ctrls.perBankRdBursts::6               421                       # Per bank write bursts
system.mem_ctrls.perBankRdBursts::7               494                       # Per bank write bursts
system.mem_ctrls.perBankRdBursts::8               443                       # Per bank write bursts
system.mem_ctrls.perBankRdBursts::9               538                       # Per bank write bursts
system.mem_ctrls.perBankRdBursts::10              332                       # Per bank write bursts
system.mem_ctrls.perBankRdBursts::11              418                       # Per bank write bursts
system.mem_ctrls.perBankRdBursts::12              353                       # Per bank write bursts
system.mem_ctrls.perBankRdBursts::13              520                       # Per bank write bursts
system.mem_ctrls.perBankRdBursts::14              623                       # Per bank write bursts
system.mem_ctrls.perBankRdBursts::15              300                       # Per bank write bursts
system.mem_ctrls.perBankWrBursts::0               169                       # Per bank write bursts
system.mem_ctrls.perBankWrBursts::1               278                       # Per bank write bursts
system.mem_ctrls.perBankWrBursts::2               327                       # Per bank write bursts
system.mem_ctrls.perBankWrBursts::3               136                       # Per bank write bursts
system.mem_ctrls.perBankWrBursts::4               357                       # Per bank write bursts
system.mem_ctrls.perBankWrBursts::5               328                       # Per bank write bursts
system.mem_ctrls.perBankWrBursts::6               129                       # Per bank write bursts
system.mem_ctrls.perBankWrBursts::7               341                       # Per bank write bursts
system.mem_ctrls.perBankWrBursts::8               229                       # Per bank write bursts
system.mem_ctrls.perBankWrBursts::9               200                       # Per bank write bursts
system.mem_ctrls.perBankWrBursts::10              132                       # Per bank write bursts
system.mem_ctrls.perBankWrBursts::11               73                       # Per bank write bursts
system.mem_ctrls.perBankWrBursts::12               65                       # Per bank write bursts
system.mem_ctrls.perBankWrBursts::13              130                       # Per bank write bursts
system.mem_ctrls.perBankWrBursts::14              181                       # Per bank write bursts
system.mem_ctrls.perBankWrBursts::15              211                       # Per bank write bursts
system.mem_ctrls.numRdRetry                         0                       # Number of times read queue was full causing retry
system.mem_ctrls.numWrRetry                         0                       # Number of times write queue was full causing retry
system.mem_ctrls.totGap                  462929891000                       # Total gap between requests
system.mem_ctrls.readPktSize::0                     0                       # Read request sizes (log2)
system.mem_ctrls.readPktSize::1                     0                       # Read request sizes (log2)
system.mem_ctrls.readPktSize::2                     0                       # Read request sizes (log2)
system.mem_ctrls.readPktSize::3                     0                       # Read request sizes (log2)
system.mem_ctrls.readPktSize::4                     0                       # Read request sizes (log2)
system.mem_ctrls.readPktSize::5                     0                       # Read request sizes (log2)
system.mem_ctrls.readPktSize::6                  7339                       # Read request sizes (log2)
system.mem_ctrls.writePktSize::0                    0                       # Write request sizes (log2)
system.mem_ctrls.writePktSize::1                    0                       # Write request sizes (log2)
system.mem_ctrls.writePktSize::2                    0                       # Write request sizes (log2)
system.mem_ctrls.writePktSize::3                    0                       # Write request sizes (log2)
system.mem_ctrls.writePktSize::4                    0                       # Write request sizes (log2)
system.mem_ctrls.writePktSize::5                    0                       # Write request sizes (log2)
system.mem_ctrls.writePktSize::6                 3291                       # Write request sizes (log2)
system.mem_ctrls.rdQLenPdf::0                    7095                       # What read queue length does an incoming req see
system.mem_ctrls.rdQLenPdf::1                     207                       # What read queue length does an incoming req see
system.mem_ctrls.rdQLenPdf::2                       0                       # What read queue length does an incoming req see
system.mem_ctrls.rdQLenPdf::3                       0                       # What read queue length does an incoming req see
system.mem_ctrls.rdQLenPdf::4                       0                       # What read queue length does an incoming req see
system.mem_ctrls.rdQLenPdf::5                       0                       # What read queue length does an incoming req see
system.mem_ctrls.rdQLenPdf::6                       0                       # What read queue length does an incoming req see
system.mem_ctrls.rdQLenPdf::7                       0                       # What read queue length does an incoming req see
system.mem_ctrls.rdQLenPdf::8                       0                       # What read queue length does an incoming req see
system.mem_ctrls.rdQLenPdf::9                       0                       # What read queue length does an incoming req see
system.mem_ctrls.rdQLenPdf::10                      0                       # What read queue length does an incoming req see
system.mem_ctrls.rdQLenPdf::11                      0                       # What read queue length does an incoming req see
system.mem_ctrls.rdQLenPdf::12                      0                       # What read queue length does an incoming req see
system.mem_ctrls.rdQLenPdf::13                      0                       # What read queue length does an incoming req see
system.mem_ctrls.rdQLenPdf::14                      0                       # What read queue length does an incoming req see
system.mem_ctrls.rdQLenPdf::15                      0                       # What read queue length does an incoming req see
system.mem_ctrls.rdQLenPdf::16                      0                       # What read queue length does an incoming req see
system.mem_ctrls.rdQLenPdf::17                      0                       # What read queue length does an incoming req see
system.mem_ctrls.rdQLenPdf::18                      0                       # What read queue length does an incoming req see
system.mem_ctrls.rdQLenPdf::19                      0                       # What read queue length does an incoming req see
system.mem_ctrls.rdQLenPdf::20                      0                       # What read queue length does an incoming req see
system.mem_ctrls.rdQLenPdf::21                      0                       # What read queue length does an incoming req see
system.mem_ctrls.rdQLenPdf::22                      0                       # What read queue length does an incoming req see
system.mem_ctrls.rdQLenPdf::23                      0                       # What read queue length does an incoming req see
system.mem_ctrls.rdQLenPdf::24                      0                       # What read queue length does an incoming req see
system.mem_ctrls.rdQLenPdf::25                      0                       # What read queue length does an incoming req see
system.mem_ctrls.rdQLenPdf::26                      0                       # What read queue length does an incoming req see
system.mem_ctrls.rdQLenPdf::27                      0                       # What read queue length does an incoming req see
system.mem_ctrls.rdQLenPdf::28                      0                       # What read queue length does an incoming req see
system.mem_ctrls.rdQLenPdf::29                      0                       # What read queue length does an incoming req see
system.mem_ctrls.rdQLenPdf::30                      0                       # What read queue length does an incoming req see
system.mem_ctrls.rdQLenPdf::31                      0                       # What read queue length does an incoming req see
system.mem_ctrls.wrQLenPdf::0                       0                       # What write queue length does an incoming req see
system.mem_ctrls.wrQLenPdf::1                       0                       # What write queue length does an incoming req see
system.mem_ctrls.wrQLenPdf::2                       0                       # What write queue length does an incoming req see
system.mem_ctrls.wrQLenPdf::3                       0                       # What write queue length does an incoming req see
system.mem_ctrls.wrQLenPdf::4                       0                       # What write queue length does an incoming req see
system.mem_ctrls.wrQLenPdf::5                       0                       # What write queue length does an incoming req see
system.mem_ctrls.wrQLenPdf::6                       0                       # What write queue length does an incoming req see
system.mem_ctrls.wrQLenPdf::7                       0                       # What write queue length does an incoming req see
system.mem_ctrls.wrQLenPdf::8                       0                       # What write queue length does an incoming req see
system.mem_ctrls.wrQLenPdf::9                       0                       # What write queue length does an incoming req see
system.mem_ctrls.wrQLenPdf::10                      0                       # What write queue length does an incoming req see
system.mem_ctrls.wrQLenPdf::11                      0                       # What write queue length does an incoming req see
system.mem_ctrls.wrQLenPdf::12                      0                       # What write queue length does an incoming req see
system.mem_ctrls.wrQLenPdf::13                      0                       # What write queue length does an incoming req see
system.mem_ctrls.wrQLenPdf::14                      0                       # What write queue length does an incoming req see
system.mem_ctrls.wrQLenPdf::15                    118                       # What write queue length does an incoming req see
system.mem_ctrls.wrQLenPdf::16                    150                       # What write queue length does an incoming req see
system.mem_ctrls.wrQLenPdf::17                    170                       # What write queue length does an incoming req see
system.mem_ctrls.wrQLenPdf::18                    210                       # What write queue length does an incoming req see
system.mem_ctrls.wrQLenPdf::19                    186                       # What write queue length does an incoming req see
system.mem_ctrls.wrQLenPdf::20                    221                       # What write queue length does an incoming req see
system.mem_ctrls.wrQLenPdf::21                    222                       # What write queue length does an incoming req see
system.mem_ctrls.wrQLenPdf::22                    174                       # What write queue length does an incoming req see
system.mem_ctrls.wrQLenPdf::23                    223                       # What write queue length does an incoming req see
system.mem_ctrls.wrQLenPdf::24                    221                       # What write queue length does an incoming req see
system.mem_ctrls.wrQLenPdf::25                    183                       # What write queue length does an incoming req see
system.mem_ctrls.wrQLenPdf::26                    191                       # What write queue length does an incoming req see
system.mem_ctrls.wrQLenPdf::27                    178                       # What write queue length does an incoming req see
system.mem_ctrls.wrQLenPdf::28                    171                       # What write queue length does an incoming req see
system.mem_ctrls.wrQLenPdf::29                    157                       # What write queue length does an incoming req see
system.mem_ctrls.wrQLenPdf::30                    171                       # What write queue length does an incoming req see
system.mem_ctrls.wrQLenPdf::31                    163                       # What write queue length does an incoming req see
system.mem_ctrls.wrQLenPdf::32                    154                       # What write queue length does an incoming req see
system.mem_ctrls.wrQLenPdf::33                      7                       # What write queue length does an incoming req see
system.mem_ctrls.wrQLenPdf::34                      5                       # What write queue length does an incoming req see
system.mem_ctrls.wrQLenPdf::35                      4                       # What write queue length does an incoming req see
system.mem_ctrls.wrQLenPdf::36                      2                       # What write queue length does an incoming req see
system.mem_ctrls.wrQLenPdf::37                      2                       # What write queue length does an incoming req see
system.mem_ctrls.wrQLenPdf::38                      3                       # What write queue length does an incoming req see
system.mem_ctrls.wrQLenPdf::39                      1                       # What write queue length does an incoming req see
system.mem_ctrls.wrQLenPdf::40                      1                       # What write queue length does an incoming req see
system.mem_ctrls.wrQLenPdf::41                      1                       # What write queue length does an incoming req see
system.mem_ctrls.wrQLenPdf::42                      1                       # What write queue length does an incoming req see
system.mem_ctrls.wrQLenPdf::43                      1                       # What write queue length does an incoming req see
system.mem_ctrls.wrQLenPdf::44                      0                       # What write queue length does an incoming req see
system.mem_ctrls.wrQLenPdf::45                      0                       # What write queue length does an incoming req see
system.mem_ctrls.wrQLenPdf::46                      0                       # What write queue length does an incoming req see
system.mem_ctrls.wrQLenPdf::47                      0                       # What write queue length does an incoming req see
system.mem_ctrls.wrQLenPdf::48                      0                       # What write queue length does an incoming req see
system.mem_ctrls.wrQLenPdf::49                      0                       # What write queue length does an incoming req see
system.mem_ctrls.wrQLenPdf::50                      0                       # What write queue length does an incoming req see
system.mem_ctrls.wrQLenPdf::51                      0                       # What write queue length does an incoming req see
system.mem_ctrls.wrQLenPdf::52                      0                       # What write queue length does an incoming req see
system.mem_ctrls.wrQLenPdf::53                      0                       # What write queue length does an incoming req see
system.mem_ctrls.wrQLenPdf::54                      0                       # What write queue length does an incoming req see
system.mem_ctrls.wrQLenPdf::55                      0                       # What write queue length does an incoming req see
system.mem_ctrls.wrQLenPdf::56                      0                       # What write queue length does an incoming req see
system.mem_ctrls.wrQLenPdf::57                      0                       # What write queue length does an incoming req see
system.mem_ctrls.wrQLenPdf::58                      0                       # What write queue length does an incoming req see
system.mem_ctrls.wrQLenPdf::59                      0                       # What write queue length does an incoming req see
system.mem_ctrls.wrQLenPdf::60                      0                       # What write queue length does an incoming req see
system.mem_ctrls.wrQLenPdf::61                      0                       # What write queue length does an incoming req see
system.mem_ctrls.wrQLenPdf::62                      0                       # What write queue length does an incoming req see
system.mem_ctrls.wrQLenPdf::63                      0                       # What write queue length does an incoming req see
system.mem_ctrls.bytesPerActivate::samples         3395                       # Bytes accessed per row activation
system.mem_ctrls.bytesPerActivate::mean    199.691311                       # Bytes accessed per row activation
system.mem_ctrls.bytesPerActivate::gmean   120.648406                       # Bytes accessed per row activation
system.mem_ctrls.bytesPerActivate::stdev   270.520359                       # Bytes accessed per row activation
system.mem_ctrls.bytesPerActivate::0-127         1759     51.81%     51.81% # Bytes accessed per row activation
system.mem_ctrls.bytesPerActivate::128-255         1016     29.93%     81.74% # Bytes accessed per row activation
system.mem_ctrls.bytesPerActivate::256-383          156      4.59%     86.33% # Bytes accessed per row activation
system.mem_ctrls.bytesPerActivate::384-511           91      2.68%     89.01% # Bytes accessed per row activation
system.mem_ctrls.bytesPerActivate::512-639           43      1.27%     90.28% # Bytes accessed per row activation
system.mem_ctrls.bytesPerActivate::640-767           30      0.88%     91.16% # Bytes accessed per row activation
system.mem_ctrls.bytesPerActivate::768-895           18      0.53%     91.69% # Bytes accessed per row activation
system.mem_ctrls.bytesPerActivate::896-1023           26      0.77%     92.46% # Bytes accessed per row activation
system.mem_ctrls.bytesPerActivate::1024-1151          256      7.54%    100.00% # Bytes accessed per row activation
system.mem_ctrls.bytesPerActivate::total         3395                       # Bytes accessed per row activation
system.mem_ctrls.rdPerTurnAround::samples          152                       # Reads before turning the bus around for writes
system.mem_ctrls.rdPerTurnAround::mean     147.085526                       # Reads before turning the bus around for writes
system.mem_ctrls.rdPerTurnAround::stdev   1239.744643                       # Reads before turning the bus around for writes
system.mem_ctrls.rdPerTurnAround::0-511           148     97.37%     97.37% # Reads before turning the bus around for writes
system.mem_ctrls.rdPerTurnAround::512-1023            1      0.66%     98.03% # Reads before turning the bus around for writes
system.mem_ctrls.rdPerTurnAround::1024-1535            1      0.66%     98.68% # Reads before turning the bus around for writes
system.mem_ctrls.rdPerTurnAround::1536-2047            1      0.66%     99.34% # Reads before turning the bus around for writes
system.mem_ctrls.rdPerTurnAround::14848-15359            1      0.66%    100.00% # Reads before turning the bus around for writes
system.mem_ctrls.rdPerTurnAround::total           152                       # Reads before turning the bus around for writes
system.mem_ctrls.wrPerTurnAround::samples          152                       # Writes before turning the bus around for reads
system.mem_ctrls.wrPerTurnAround::mean      21.618421                       # Writes before turning the bus around for reads
system.mem_ctrls.wrPerTurnAround::gmean     21.287444                       # Writes before turning the bus around for reads
system.mem_ctrls.wrPerTurnAround::stdev      3.778528                       # Writes before turning the bus around for reads
system.mem_ctrls.wrPerTurnAround::16               29     19.08%     19.08% # Writes before turning the bus around for reads
system.mem_ctrls.wrPerTurnAround::17                2      1.32%     20.39% # Writes before turning the bus around for reads
system.mem_ctrls.wrPerTurnAround::18                4      2.63%     23.03% # Writes before turning the bus around for reads
system.mem_ctrls.wrPerTurnAround::19                5      3.29%     26.32% # Writes before turning the bus around for reads
system.mem_ctrls.wrPerTurnAround::20                4      2.63%     28.95% # Writes before turning the bus around for reads
system.mem_ctrls.wrPerTurnAround::21               32     21.05%     50.00% # Writes before turning the bus around for reads
system.mem_ctrls.wrPerTurnAround::22               12      7.89%     57.89% # Writes before turning the bus around for reads
system.mem_ctrls.wrPerTurnAround::23                4      2.63%     60.53% # Writes before turning the bus around for reads
system.mem_ctrls.wrPerTurnAround::24               41     26.97%     87.50% # Writes before turning the bus around for reads
system.mem_ctrls.wrPerTurnAround::25                5      3.29%     90.79% # Writes before turning the bus around for reads
system.mem_ctrls.wrPerTurnAround::27                1      0.66%     91.45% # Writes before turning the bus around for reads
system.mem_ctrls.wrPerTurnAround::28               10      6.58%     98.03% # Writes before turning the bus around for reads
system.mem_ctrls.wrPerTurnAround::30                1      0.66%     98.68% # Writes before turning the bus around for reads
system.mem_ctrls.wrPerTurnAround::33                1      0.66%     99.34% # Writes before turning the bus around for reads
system.mem_ctrls.wrPerTurnAround::34                1      0.66%    100.00% # Writes before turning the bus around for reads
system.mem_ctrls.wrPerTurnAround::total           152                       # Writes before turning the bus around for reads
system.mem_ctrls.totQLat                     77924498                       # Total ticks spent queuing
system.mem_ctrls.totMemAccLat               214836998                       # Total ticks spent from burst creation until serviced by the DRAM
system.mem_ctrls.totBusLat                   36510000                       # Total ticks spent in databus transfers
system.mem_ctrls.avgQLat                     10671.67                       # Average queueing delay per DRAM burst
system.mem_ctrls.avgBusLat                    5000.00                       # Average bus latency per DRAM burst
system.mem_ctrls.avgMemAccLat                29421.67                       # Average memory access latency per DRAM burst
system.mem_ctrls.avgRdBW                         1.01                       # Average DRAM read bandwidth in MiByte/s
system.mem_ctrls.avgWrBW                         0.45                       # Average achieved write bandwidth in MiByte/s
system.mem_ctrls.avgRdBWSys                      1.01                       # Average system read bandwidth in MiByte/s
system.mem_ctrls.avgWrBWSys                      0.45                       # Average system write bandwidth in MiByte/s
system.mem_ctrls.peakBW                      12800.00                       # Theoretical peak bandwidth in MiByte/s
system.mem_ctrls.busUtil                         0.01                       # Data bus utilization in percentage
system.mem_ctrls.busUtilRead                     0.01                       # Data bus utilization in percentage for reads
system.mem_ctrls.busUtilWrite                    0.00                       # Data bus utilization in percentage for writes
system.mem_ctrls.avgRdQLen                       1.00                       # Average read queue length when enqueuing
system.mem_ctrls.avgWrQLen                      24.60                       # Average write queue length when enqueuing
system.mem_ctrls.readRowHits                     4324                       # Number of row buffer hits during reads
system.mem_ctrls.writeRowHits                    2871                       # Number of row buffer hits during writes
system.mem_ctrls.readRowHitRate                 59.22                       # Row buffer hit rate for reads
system.mem_ctrls.writeRowHitRate                87.24                       # Row buffer hit rate for writes
system.mem_ctrls.avgGap                   43549378.27                       # Average gap between requests
system.mem_ctrls.pageHitRate                    67.92                       # Row buffer hit rate, read and write combined
system.mem_ctrls_0.actEnergy                 27979560                       # Energy for activate commands per rank (pJ)
system.mem_ctrls_0.preEnergy                 15266625                       # Energy for precharge commands per rank (pJ)
system.mem_ctrls_0.readEnergy                91985400                       # Energy for read commands per rank (pJ)
system.mem_ctrls_0.writeEnergy               13381200                       # Energy for write commands per rank (pJ)
system.mem_ctrls_0.refreshEnergy          30452572800                       # Energy for refresh commands per rank (pJ)
system.mem_ctrls_0.actBackEnergy          13166232210                       # Energy for active background per rank (pJ)
system.mem_ctrls_0.preBackEnergy         268195219500                       # Energy for precharge background per rank (pJ)
system.mem_ctrls_0.totalEnergy           311962637295                       # Total energy per rank (pJ)
system.mem_ctrls_0.averagePower            669.101811                       # Core power per rank (mW)
system.mem_ctrls_0.memoryStateTime::IDLE 444972178250                       # Time in different power states
system.mem_ctrls_0.memoryStateTime::REF   15458300000                       # Time in different power states
system.mem_ctrls_0.memoryStateTime::PRE_PDN            0                       # Time in different power states
system.mem_ctrls_0.memoryStateTime::ACT    2504994750                       # Time in different power states
system.mem_ctrls_0.memoryStateTime::ACT_PDN            0                       # Time in different power states
system.mem_ctrls_1.actEnergy                 25416720                       # Energy for activate commands per rank (pJ)
system.mem_ctrls_1.preEnergy                 13868250                       # Energy for precharge commands per rank (pJ)
system.mem_ctrls_1.readEnergy                82734600                       # Energy for read commands per rank (pJ)
system.mem_ctrls_1.writeEnergy                7912080                       # Energy for write commands per rank (pJ)
system.mem_ctrls_1.refreshEnergy          30452572800                       # Energy for refresh commands per rank (pJ)
system.mem_ctrls_1.actBackEnergy          12961239975                       # Energy for active background per rank (pJ)
system.mem_ctrls_1.preBackEnergy         268375029000                       # Energy for precharge background per rank (pJ)
system.mem_ctrls_1.totalEnergy           311918773425                       # Total energy per rank (pJ)
system.mem_ctrls_1.averagePower            669.007751                       # Core power per rank (mW)
system.mem_ctrls_1.memoryStateTime::IDLE 445170730250                       # Time in different power states
system.mem_ctrls_1.memoryStateTime::REF   15458300000                       # Time in different power states
system.mem_ctrls_1.memoryStateTime::PRE_PDN            0                       # Time in different power states
system.mem_ctrls_1.memoryStateTime::ACT    2302449750                       # Time in different power states
system.mem_ctrls_1.memoryStateTime::ACT_PDN            0                       # Time in different power states
system.cpu_voltage_domain.voltage                   1                       # Voltage in Volts
system.cpu_clk_domain.clock                       500                       # Clock period in ticks
system.cpu0.apic_clk_domain.clock                8000                       # Clock period in ticks
system.cpu0.numCycles                       923284860                       # number of cpu cycles simulated
system.cpu0.numWorkItemsStarted                     0                       # number of work items this cpu started
system.cpu0.numWorkItemsCompleted                   0                       # number of work items this cpu completed
system.cpu0.kern.inst.arm                           0                       # number of arm instructions executed
system.cpu0.kern.inst.quiesce                       0                       # number of quiesce instructions executed
system.cpu0.committedInsts                     396111                       # Number of instructions committed
system.cpu0.committedOps                       851703                       # Number of ops (including micro ops) committed
system.cpu0.num_int_alu_accesses               835533                       # Number of integer alu accesses
system.cpu0.num_fp_alu_accesses                    33                       # Number of float alu accesses
system.cpu0.num_func_calls                      25297                       # number of times a function call or return occured
system.cpu0.num_conditional_control_insts        57489                       # number of instructions that are conditional controls
system.cpu0.num_int_insts                      835533                       # number of integer instructions
system.cpu0.num_fp_insts                           33                       # number of float instructions
system.cpu0.num_int_register_reads            1683507                       # number of times the integer registers were read
system.cpu0.num_int_register_writes            687263                       # number of times the integer registers were written
system.cpu0.num_fp_register_reads                  14                       # number of times the floating registers were read
system.cpu0.num_fp_register_writes                 25                       # number of times the floating registers were written
system.cpu0.num_cc_register_reads              465096                       # number of times the CC registers were read
system.cpu0.num_cc_register_writes             258745                       # number of times the CC registers were written
system.cpu0.num_mem_refs                       198598                       # number of memory refs
system.cpu0.num_load_insts                     122647                       # Number of load instructions
system.cpu0.num_store_insts                     75951                       # Number of store instructions
system.cpu0.num_idle_cycles              921466043.730832                       # Number of idle cycles
system.cpu0.num_busy_cycles              1818816.269168                       # Number of busy cycles
system.cpu0.not_idle_fraction                0.001970                       # Percentage of non-idle cycles
system.cpu0.idle_fraction                    0.998030                       # Percentage of idle cycles
system.cpu0.Branches                            90354                       # Number of branches fetched
system.cpu0.op_class::No_OpClass                11736      1.38%      1.38% # Class of executed instruction
system.cpu0.op_class::IntAlu                   636066     74.68%     76.06% # Class of executed instruction
system.cpu0.op_class::IntMult                    1640      0.19%     76.25% # Class of executed instruction
system.cpu0.op_class::IntDiv                     3649      0.43%     76.68% # Class of executed instruction
system.cpu0.op_class::FloatAdd                     17      0.00%     76.68% # Class of executed instruction
system.cpu0.op_class::FloatCmp                      0      0.00%     76.68% # Class of executed instruction
system.cpu0.op_class::FloatCvt                      0      0.00%     76.68% # Class of executed instruction
system.cpu0.op_class::FloatMult                     0      0.00%     76.68% # Class of executed instruction
system.cpu0.op_class::FloatDiv                      0      0.00%     76.68% # Class of executed instruction
system.cpu0.op_class::FloatSqrt                     0      0.00%     76.68% # Class of executed instruction
system.cpu0.op_class::SimdAdd                       0      0.00%     76.68% # Class of executed instruction
system.cpu0.op_class::SimdAddAcc                    0      0.00%     76.68% # Class of executed instruction
system.cpu0.op_class::SimdAlu                       0      0.00%     76.68% # Class of executed instruction
system.cpu0.op_class::SimdCmp                       0      0.00%     76.68% # Class of executed instruction
system.cpu0.op_class::SimdCvt                       0      0.00%     76.68% # Class of executed instruction
system.cpu0.op_class::SimdMisc                      0      0.00%     76.68% # Class of executed instruction
system.cpu0.op_class::SimdMult                      0      0.00%     76.68% # Class of executed instruction
system.cpu0.op_class::SimdMultAcc                   0      0.00%     76.68% # Class of executed instruction
system.cpu0.op_class::SimdShift                     0      0.00%     76.68% # Class of executed instruction
system.cpu0.op_class::SimdShiftAcc                  0      0.00%     76.68% # Class of executed instruction
system.cpu0.op_class::SimdSqrt                      0      0.00%     76.68% # Class of executed instruction
system.cpu0.op_class::SimdFloatAdd                  0      0.00%     76.68% # Class of executed instruction
system.cpu0.op_class::SimdFloatAlu                  0      0.00%     76.68% # Class of executed instruction
system.cpu0.op_class::SimdFloatCmp                  0      0.00%     76.68% # Class of executed instruction
system.cpu0.op_class::SimdFloatCvt                  0      0.00%     76.68% # Class of executed instruction
system.cpu0.op_class::SimdFloatDiv                  0      0.00%     76.68% # Class of executed instruction
system.cpu0.op_class::SimdFloatMisc                 0      0.00%     76.68% # Class of executed instruction
system.cpu0.op_class::SimdFloatMult                 0      0.00%     76.68% # Class of executed instruction
system.cpu0.op_class::SimdFloatMultAcc              0      0.00%     76.68% # Class of executed instruction
system.cpu0.op_class::SimdFloatSqrt                 0      0.00%     76.68% # Class of executed instruction
system.cpu0.op_class::MemRead                  122647     14.40%     91.08% # Class of executed instruction
system.cpu0.op_class::MemWrite                  75951      8.92%    100.00% # Class of executed instruction
system.cpu0.op_class::IprAccess                     0      0.00%    100.00% # Class of executed instruction
system.cpu0.op_class::InstPrefetch                  0      0.00%    100.00% # Class of executed instruction
system.cpu0.op_class::total                    851706                       # Class of executed instruction
system.cpu1.apic_clk_domain.clock                8000                       # Clock period in ticks
system.cpu1.numCycles                       924064966                       # number of cpu cycles simulated
system.cpu1.numWorkItemsStarted                     0                       # number of work items this cpu started
system.cpu1.numWorkItemsCompleted                   0                       # number of work items this cpu completed
system.cpu1.kern.inst.arm                           0                       # number of arm instructions executed
system.cpu1.kern.inst.quiesce                       0                       # number of quiesce instructions executed
system.cpu1.committedInsts                    1055407                       # Number of instructions committed
system.cpu1.committedOps                      2040007                       # Number of ops (including micro ops) committed
system.cpu1.num_int_alu_accesses              2008893                       # Number of integer alu accesses
system.cpu1.num_fp_alu_accesses                  2182                       # Number of float alu accesses
system.cpu1.num_func_calls                      43123                       # number of times a function call or return occured
system.cpu1.num_conditional_control_insts       166349                       # number of instructions that are conditional controls
system.cpu1.num_int_insts                     2008893                       # number of integer instructions
system.cpu1.num_fp_insts                         2182                       # number of float instructions
system.cpu1.num_int_register_reads            4083389                       # number of times the integer registers were read
system.cpu1.num_int_register_writes           1634100                       # number of times the integer registers were written
system.cpu1.num_fp_register_reads                3630                       # number of times the floating registers were read
system.cpu1.num_fp_register_writes               1789                       # number of times the floating registers were written
system.cpu1.num_cc_register_reads             1175827                       # number of times the CC registers were read
system.cpu1.num_cc_register_writes             680622                       # number of times the CC registers were written
system.cpu1.num_mem_refs                       465168                       # number of memory refs
system.cpu1.num_load_insts                     285892                       # Number of load instructions
system.cpu1.num_store_insts                    179276                       # Number of store instructions
system.cpu1.num_idle_cycles              919662025.552890                       # Number of idle cycles
system.cpu1.num_busy_cycles              4402940.447110                       # Number of busy cycles
system.cpu1.not_idle_fraction                0.004765                       # Percentage of non-idle cycles
system.cpu1.idle_fraction                    0.995235                       # Percentage of idle cycles
system.cpu1.Branches                           225849                       # Number of branches fetched
system.cpu1.op_class::No_OpClass                20168      0.99%      0.99% # Class of executed instruction
system.cpu1.op_class::IntAlu                  1544697     75.72%     76.71% # Class of executed instruction
system.cpu1.op_class::IntMult                    2556      0.13%     76.83% # Class of executed instruction
system.cpu1.op_class::IntDiv                     5926      0.29%     77.12% # Class of executed instruction
system.cpu1.op_class::FloatAdd                   1586      0.08%     77.20% # Class of executed instruction
system.cpu1.op_class::FloatCmp                      0      0.00%     77.20% # Class of executed instruction
system.cpu1.op_class::FloatCvt                      0      0.00%     77.20% # Class of executed instruction
system.cpu1.op_class::FloatMult                     0      0.00%     77.20% # Class of executed instruction
system.cpu1.op_class::FloatDiv                      0      0.00%     77.20% # Class of executed instruction
system.cpu1.op_class::FloatSqrt                     0      0.00%     77.20% # Class of executed instruction
system.cpu1.op_class::SimdAdd                       0      0.00%     77.20% # Class of executed instruction
system.cpu1.op_class::SimdAddAcc                    0      0.00%     77.20% # Class of executed instruction
system.cpu1.op_class::SimdAlu                       0      0.00%     77.20% # Class of executed instruction
system.cpu1.op_class::SimdCmp                       0      0.00%     77.20% # Class of executed instruction
system.cpu1.op_class::SimdCvt                       0      0.00%     77.20% # Class of executed instruction
system.cpu1.op_class::SimdMisc                      0      0.00%     77.20% # Class of executed instruction
system.cpu1.op_class::SimdMult                      0      0.00%     77.20% # Class of executed instruction
system.cpu1.op_class::SimdMultAcc                   0      0.00%     77.20% # Class of executed instruction
system.cpu1.op_class::SimdShift                     0      0.00%     77.20% # Class of executed instruction
system.cpu1.op_class::SimdShiftAcc                  0      0.00%     77.20% # Class of executed instruction
system.cpu1.op_class::SimdSqrt                      0      0.00%     77.20% # Class of executed instruction
system.cpu1.op_class::SimdFloatAdd                  0      0.00%     77.20% # Class of executed instruction
system.cpu1.op_class::SimdFloatAlu                  0      0.00%     77.20% # Class of executed instruction
system.cpu1.op_class::SimdFloatCmp                  0      0.00%     77.20% # Class of executed instruction
system.cpu1.op_class::SimdFloatCvt                  0      0.00%     77.20% # Class of executed instruction
system.cpu1.op_class::SimdFloatDiv                  0      0.00%     77.20% # Class of executed instruction
system.cpu1.op_class::SimdFloatMisc                 0      0.00%     77.20% # Class of executed instruction
system.cpu1.op_class::SimdFloatMult                 0      0.00%     77.20% # Class of executed instruction
system.cpu1.op_class::SimdFloatMultAcc              0      0.00%     77.20% # Class of executed instruction
system.cpu1.op_class::SimdFloatSqrt                 0      0.00%     77.20% # Class of executed instruction
system.cpu1.op_class::MemRead                  285892     14.01%     91.21% # Class of executed instruction
system.cpu1.op_class::MemWrite                 179276      8.79%    100.00% # Class of executed instruction
system.cpu1.op_class::IprAccess                     0      0.00%    100.00% # Class of executed instruction
system.cpu1.op_class::InstPrefetch                  0      0.00%    100.00% # Class of executed instruction
system.cpu1.op_class::total                   2040101                       # Class of executed instruction
system.cpu2.apic_clk_domain.clock                8000                       # Clock period in ticks
system.cpu2.numCycles                       925104175                       # number of cpu cycles simulated
system.cpu2.numWorkItemsStarted                     0                       # number of work items this cpu started
system.cpu2.numWorkItemsCompleted                   0                       # number of work items this cpu completed
system.cpu2.kern.inst.arm                           0                       # number of arm instructions executed
system.cpu2.kern.inst.quiesce                       0                       # number of quiesce instructions executed
system.cpu2.committedInsts                     431132                       # Number of instructions committed
system.cpu2.committedOps                       905287                       # Number of ops (including micro ops) committed
system.cpu2.num_int_alu_accesses               886454                       # Number of integer alu accesses
system.cpu2.num_fp_alu_accesses                   154                       # Number of float alu accesses
system.cpu2.num_func_calls                      23913                       # number of times a function call or return occured
system.cpu2.num_conditional_control_insts        67000                       # number of instructions that are conditional controls
system.cpu2.num_int_insts                      886454                       # number of integer instructions
system.cpu2.num_fp_insts                          154                       # number of float instructions
system.cpu2.num_int_register_reads            1795590                       # number of times the integer registers were read
system.cpu2.num_int_register_writes            729251                       # number of times the integer registers were written
system.cpu2.num_fp_register_reads                 285                       # number of times the floating registers were read
system.cpu2.num_fp_register_writes                124                       # number of times the floating registers were written
system.cpu2.num_cc_register_reads              516885                       # number of times the CC registers were read
system.cpu2.num_cc_register_writes             275180                       # number of times the CC registers were written
system.cpu2.num_mem_refs                       213671                       # number of memory refs
system.cpu2.num_load_insts                     131318                       # Number of load instructions
system.cpu2.num_store_insts                     82353                       # Number of store instructions
system.cpu2.num_idle_cycles              923225101.091383                       # Number of idle cycles
system.cpu2.num_busy_cycles              1879073.908617                       # Number of busy cycles
system.cpu2.not_idle_fraction                0.002031                       # Percentage of non-idle cycles
system.cpu2.idle_fraction                    0.997969                       # Percentage of idle cycles
system.cpu2.Branches                            98939                       # Number of branches fetched
system.cpu2.op_class::No_OpClass                14843      1.64%      1.64% # Class of executed instruction
system.cpu2.op_class::IntAlu                   669730     73.98%     75.62% # Class of executed instruction
system.cpu2.op_class::IntMult                    1959      0.22%     75.83% # Class of executed instruction
system.cpu2.op_class::IntDiv                     5025      0.56%     76.39% # Class of executed instruction
system.cpu2.op_class::FloatAdd                     87      0.01%     76.40% # Class of executed instruction
system.cpu2.op_class::FloatCmp                      0      0.00%     76.40% # Class of executed instruction
system.cpu2.op_class::FloatCvt                      0      0.00%     76.40% # Class of executed instruction
system.cpu2.op_class::FloatMult                     0      0.00%     76.40% # Class of executed instruction
system.cpu2.op_class::FloatDiv                      0      0.00%     76.40% # Class of executed instruction
system.cpu2.op_class::FloatSqrt                     0      0.00%     76.40% # Class of executed instruction
system.cpu2.op_class::SimdAdd                       0      0.00%     76.40% # Class of executed instruction
system.cpu2.op_class::SimdAddAcc                    0      0.00%     76.40% # Class of executed instruction
system.cpu2.op_class::SimdAlu                       0      0.00%     76.40% # Class of executed instruction
system.cpu2.op_class::SimdCmp                       0      0.00%     76.40% # Class of executed instruction
system.cpu2.op_class::SimdCvt                       0      0.00%     76.40% # Class of executed instruction
system.cpu2.op_class::SimdMisc                      0      0.00%     76.40% # Class of executed instruction
system.cpu2.op_class::SimdMult                      0      0.00%     76.40% # Class of executed instruction
system.cpu2.op_class::SimdMultAcc                   0      0.00%     76.40% # Class of executed instruction
system.cpu2.op_class::SimdShift                     0      0.00%     76.40% # Class of executed instruction
system.cpu2.op_class::SimdShiftAcc                  0      0.00%     76.40% # Class of executed instruction
system.cpu2.op_class::SimdSqrt                      0      0.00%     76.40% # Class of executed instruction
system.cpu2.op_class::SimdFloatAdd                  0      0.00%     76.40% # Class of executed instruction
system.cpu2.op_class::SimdFloatAlu                  0      0.00%     76.40% # Class of executed instruction
system.cpu2.op_class::SimdFloatCmp                  0      0.00%     76.40% # Class of executed instruction
system.cpu2.op_class::SimdFloatCvt                  0      0.00%     76.40% # Class of executed instruction
system.cpu2.op_class::SimdFloatDiv                  0      0.00%     76.40% # Class of executed instruction
system.cpu2.op_class::SimdFloatMisc                 0      0.00%     76.40% # Class of executed instruction
system.cpu2.op_class::SimdFloatMult                 0      0.00%     76.40% # Class of executed instruction
system.cpu2.op_class::SimdFloatMultAcc              0      0.00%     76.40% # Class of executed instruction
system.cpu2.op_class::SimdFloatSqrt                 0      0.00%     76.40% # Class of executed instruction
system.cpu2.op_class::MemRead                  131318     14.51%     90.90% # Class of executed instruction
system.cpu2.op_class::MemWrite                  82353      9.10%    100.00% # Class of executed instruction
system.cpu2.op_class::IprAccess                     0      0.00%    100.00% # Class of executed instruction
system.cpu2.op_class::InstPrefetch                  0      0.00%    100.00% # Class of executed instruction
system.cpu2.op_class::total                    905315                       # Class of executed instruction
system.cpu3.apic_clk_domain.clock                8000                       # Clock period in ticks
system.cpu3.numCycles                       927786039                       # number of cpu cycles simulated
system.cpu3.numWorkItemsStarted                     0                       # number of work items this cpu started
system.cpu3.numWorkItemsCompleted                   0                       # number of work items this cpu completed
system.cpu3.kern.inst.arm                           0                       # number of arm instructions executed
system.cpu3.kern.inst.quiesce                       0                       # number of quiesce instructions executed
system.cpu3.committedInsts                  265752820                       # Number of instructions committed
system.cpu3.committedOps                    479190853                       # Number of ops (including micro ops) committed
system.cpu3.num_int_alu_accesses            269555960                       # Number of integer alu accesses
system.cpu3.num_fp_alu_accesses             270615189                       # Number of float alu accesses
system.cpu3.num_func_calls                    9864317                       # number of times a function call or return occured
system.cpu3.num_conditional_control_insts     14998063                       # number of instructions that are conditional controls
system.cpu3.num_int_insts                   269555960                       # number of integer instructions
system.cpu3.num_fp_insts                    270615189                       # number of float instructions
system.cpu3.num_int_register_reads          512514633                       # number of times the integer registers were read
system.cpu3.num_int_register_writes         176054541                       # number of times the integer registers were written
system.cpu3.num_fp_register_reads           446719424                       # number of times the floating registers were read
system.cpu3.num_fp_register_writes          249466775                       # number of times the floating registers were written
system.cpu3.num_cc_register_reads           106903447                       # number of times the CC registers were read
system.cpu3.num_cc_register_writes           82968333                       # number of times the CC registers were written
system.cpu3.num_mem_refs                     84024576                       # number of memory refs
system.cpu3.num_load_insts                   62867110                       # Number of load instructions
system.cpu3.num_store_insts                  21157466                       # Number of store instructions
system.cpu3.num_idle_cycles              3839568.057775                       # Number of idle cycles
system.cpu3.num_busy_cycles              923946470.942225                       # Number of busy cycles
system.cpu3.not_idle_fraction                0.995862                       # Percentage of non-idle cycles
system.cpu3.idle_fraction                    0.004138                       # Percentage of idle cycles
system.cpu3.Branches                         27045602                       # Number of branches fetched
system.cpu3.op_class::No_OpClass                11125      0.00%      0.00% # Class of executed instruction
system.cpu3.op_class::IntAlu                244778146     51.08%     51.08% # Class of executed instruction
system.cpu3.op_class::IntMult                    2179      0.00%     51.08% # Class of executed instruction
system.cpu3.op_class::IntDiv                     1771      0.00%     51.08% # Class of executed instruction
system.cpu3.op_class::FloatAdd              150373151     31.38%     82.47% # Class of executed instruction
system.cpu3.op_class::FloatCmp                      0      0.00%     82.47% # Class of executed instruction
system.cpu3.op_class::FloatCvt                      0      0.00%     82.47% # Class of executed instruction
system.cpu3.op_class::FloatMult                     0      0.00%     82.47% # Class of executed instruction
system.cpu3.op_class::FloatDiv                      0      0.00%     82.47% # Class of executed instruction
system.cpu3.op_class::FloatSqrt                     0      0.00%     82.47% # Class of executed instruction
system.cpu3.op_class::SimdAdd                       0      0.00%     82.47% # Class of executed instruction
system.cpu3.op_class::SimdAddAcc                    0      0.00%     82.47% # Class of executed instruction
system.cpu3.op_class::SimdAlu                       0      0.00%     82.47% # Class of executed instruction
system.cpu3.op_class::SimdCmp                       0      0.00%     82.47% # Class of executed instruction
system.cpu3.op_class::SimdCvt                       0      0.00%     82.47% # Class of executed instruction
system.cpu3.op_class::SimdMisc                      0      0.00%     82.47% # Class of executed instruction
system.cpu3.op_class::SimdMult                      0      0.00%     82.47% # Class of executed instruction
system.cpu3.op_class::SimdMultAcc                   0      0.00%     82.47% # Class of executed instruction
system.cpu3.op_class::SimdShift                     0      0.00%     82.47% # Class of executed instruction
system.cpu3.op_class::SimdShiftAcc                  0      0.00%     82.47% # Class of executed instruction
system.cpu3.op_class::SimdSqrt                      0      0.00%     82.47% # Class of executed instruction
system.cpu3.op_class::SimdFloatAdd                  0      0.00%     82.47% # Class of executed instruction
system.cpu3.op_class::SimdFloatAlu                  0      0.00%     82.47% # Class of executed instruction
system.cpu3.op_class::SimdFloatCmp                  0      0.00%     82.47% # Class of executed instruction
system.cpu3.op_class::SimdFloatCvt                  0      0.00%     82.47% # Class of executed instruction
system.cpu3.op_class::SimdFloatDiv                  0      0.00%     82.47% # Class of executed instruction
system.cpu3.op_class::SimdFloatMisc                 0      0.00%     82.47% # Class of executed instruction
system.cpu3.op_class::SimdFloatMult                 0      0.00%     82.47% # Class of executed instruction
system.cpu3.op_class::SimdFloatMultAcc              0      0.00%     82.47% # Class of executed instruction
system.cpu3.op_class::SimdFloatSqrt                 0      0.00%     82.47% # Class of executed instruction
system.cpu3.op_class::MemRead                62867110     13.12%     95.58% # Class of executed instruction
system.cpu3.op_class::MemWrite               21157466      4.42%    100.00% # Class of executed instruction
system.cpu3.op_class::IprAccess                     0      0.00%    100.00% # Class of executed instruction
system.cpu3.op_class::InstPrefetch                  0      0.00%    100.00% # Class of executed instruction
system.cpu3.op_class::total                 479190948                       # Class of executed instruction
system.iobus.trans_dist::ReadReq                  110                       # Transaction distribution
system.iobus.trans_dist::ReadResp                 110                       # Transaction distribution
system.iobus.trans_dist::WriteReq                 585                       # Transaction distribution
system.iobus.trans_dist::WriteResp                585                       # Transaction distribution
system.iobus.trans_dist::MessageReq                21                       # Transaction distribution
system.iobus.trans_dist::MessageResp               21                       # Transaction distribution
system.iobus.pkt_count_system.pc.south_bridge.io_apic.int_master::system.ruby.l1_cntrl0.sequencer.pio-slave-port            4                       # Packet count per connected master and slave (bytes)
system.iobus.pkt_count_system.pc.south_bridge.io_apic.int_master::system.ruby.l1_cntrl1.sequencer.pio-slave-port            4                       # Packet count per connected master and slave (bytes)
system.iobus.pkt_count_system.pc.south_bridge.io_apic.int_master::system.ruby.l1_cntrl2.sequencer.pio-slave-port            4                       # Packet count per connected master and slave (bytes)
system.iobus.pkt_count_system.pc.south_bridge.io_apic.int_master::system.ruby.l1_cntrl3.sequencer.pio-slave-port            4                       # Packet count per connected master and slave (bytes)
system.iobus.pkt_count_system.pc.south_bridge.io_apic.int_master::total           16                       # Packet count per connected master and slave (bytes)
system.iobus.pkt_count_system.ruby.l1_cntrl0.sequencer.mem-master-port::system.pc.south_bridge.ide.pio           34                       # Packet count per connected master and slave (bytes)
system.iobus.pkt_count_system.ruby.l1_cntrl0.sequencer.mem-master-port::system.pc.south_bridge.io_apic.pio           14                       # Packet count per connected master and slave (bytes)
system.iobus.pkt_count_system.ruby.l1_cntrl0.sequencer.mem-master-port::system.pc.com_1.pio          162                       # Packet count per connected master and slave (bytes)
system.iobus.pkt_count_system.ruby.l1_cntrl0.sequencer.mem-master-port::system.ruby.l1_cntrl0.sequencer.pio-slave-port          252                       # Packet count per connected master and slave (bytes)
system.iobus.pkt_count_system.ruby.l1_cntrl0.sequencer.mem-master-port::system.ruby.l1_cntrl1.sequencer.pio-slave-port            2                       # Packet count per connected master and slave (bytes)
system.iobus.pkt_count_system.ruby.l1_cntrl0.sequencer.mem-master-port::total          464                       # Packet count per connected master and slave (bytes)
system.iobus.pkt_count_system.ruby.l1_cntrl1.sequencer.mem-master-port::system.pc.south_bridge.ide.pio           46                       # Packet count per connected master and slave (bytes)
system.iobus.pkt_count_system.ruby.l1_cntrl1.sequencer.mem-master-port::system.pc.south_bridge.io_apic.pio            8                       # Packet count per connected master and slave (bytes)
system.iobus.pkt_count_system.ruby.l1_cntrl1.sequencer.mem-master-port::system.ruby.l1_cntrl0.sequencer.pio-slave-port            4                       # Packet count per connected master and slave (bytes)
system.iobus.pkt_count_system.ruby.l1_cntrl1.sequencer.mem-master-port::system.ruby.l1_cntrl1.sequencer.pio-slave-port          262                       # Packet count per connected master and slave (bytes)
system.iobus.pkt_count_system.ruby.l1_cntrl1.sequencer.mem-master-port::system.ruby.l1_cntrl2.sequencer.pio-slave-port            2                       # Packet count per connected master and slave (bytes)
system.iobus.pkt_count_system.ruby.l1_cntrl1.sequencer.mem-master-port::system.ruby.l1_cntrl3.sequencer.pio-slave-port            4                       # Packet count per connected master and slave (bytes)
system.iobus.pkt_count_system.ruby.l1_cntrl1.sequencer.mem-master-port::total          326                       # Packet count per connected master and slave (bytes)
system.iobus.pkt_count_system.ruby.l1_cntrl2.sequencer.mem-master-port::system.pc.south_bridge.ide.pio           46                       # Packet count per connected master and slave (bytes)
system.iobus.pkt_count_system.ruby.l1_cntrl2.sequencer.mem-master-port::system.pc.south_bridge.io_apic.pio            8                       # Packet count per connected master and slave (bytes)
system.iobus.pkt_count_system.ruby.l1_cntrl2.sequencer.mem-master-port::system.ruby.l1_cntrl2.sequencer.pio-slave-port          246                       # Packet count per connected master and slave (bytes)
system.iobus.pkt_count_system.ruby.l1_cntrl2.sequencer.mem-master-port::system.ruby.l1_cntrl3.sequencer.pio-slave-port            2                       # Packet count per connected master and slave (bytes)
system.iobus.pkt_count_system.ruby.l1_cntrl2.sequencer.mem-master-port::total          302                       # Packet count per connected master and slave (bytes)
system.iobus.pkt_count_system.ruby.l1_cntrl3.sequencer.mem-master-port::system.pc.south_bridge.ide.pio           12                       # Packet count per connected master and slave (bytes)
system.iobus.pkt_count_system.ruby.l1_cntrl3.sequencer.mem-master-port::system.pc.south_bridge.io_apic.pio            6                       # Packet count per connected master and slave (bytes)
system.iobus.pkt_count_system.ruby.l1_cntrl3.sequencer.mem-master-port::system.pc.com_1.pio           22                       # Packet count per connected master and slave (bytes)
system.iobus.pkt_count_system.ruby.l1_cntrl3.sequencer.mem-master-port::system.ruby.l1_cntrl0.sequencer.pio-slave-port            6                       # Packet count per connected master and slave (bytes)
system.iobus.pkt_count_system.ruby.l1_cntrl3.sequencer.mem-master-port::system.ruby.l1_cntrl1.sequencer.pio-slave-port            2                       # Packet count per connected master and slave (bytes)
system.iobus.pkt_count_system.ruby.l1_cntrl3.sequencer.mem-master-port::system.ruby.l1_cntrl2.sequencer.pio-slave-port            4                       # Packet count per connected master and slave (bytes)
system.iobus.pkt_count_system.ruby.l1_cntrl3.sequencer.mem-master-port::system.ruby.l1_cntrl3.sequencer.pio-slave-port          272                       # Packet count per connected master and slave (bytes)
system.iobus.pkt_count_system.ruby.l1_cntrl3.sequencer.mem-master-port::total          324                       # Packet count per connected master and slave (bytes)
system.iobus.pkt_count::total                    1432                       # Packet count per connected master and slave (bytes)
system.iobus.pkt_size_system.pc.south_bridge.io_apic.int_master::system.ruby.l1_cntrl0.sequencer.pio-slave-port            8                       # Cumulative packet size per connected master and slave (bytes)
system.iobus.pkt_size_system.pc.south_bridge.io_apic.int_master::system.ruby.l1_cntrl1.sequencer.pio-slave-port            8                       # Cumulative packet size per connected master and slave (bytes)
system.iobus.pkt_size_system.pc.south_bridge.io_apic.int_master::system.ruby.l1_cntrl2.sequencer.pio-slave-port            8                       # Cumulative packet size per connected master and slave (bytes)
system.iobus.pkt_size_system.pc.south_bridge.io_apic.int_master::system.ruby.l1_cntrl3.sequencer.pio-slave-port            8                       # Cumulative packet size per connected master and slave (bytes)
system.iobus.pkt_size_system.pc.south_bridge.io_apic.int_master::total           32                       # Cumulative packet size per connected master and slave (bytes)
system.iobus.pkt_size_system.ruby.l1_cntrl0.sequencer.mem-master-port::system.pc.south_bridge.ide.pio           20                       # Cumulative packet size per connected master and slave (bytes)
system.iobus.pkt_size_system.ruby.l1_cntrl0.sequencer.mem-master-port::system.pc.south_bridge.io_apic.pio           28                       # Cumulative packet size per connected master and slave (bytes)
system.iobus.pkt_size_system.ruby.l1_cntrl0.sequencer.mem-master-port::system.pc.com_1.pio           81                       # Cumulative packet size per connected master and slave (bytes)
system.iobus.pkt_size_system.ruby.l1_cntrl0.sequencer.mem-master-port::system.ruby.l1_cntrl0.sequencer.pio-slave-port          504                       # Cumulative packet size per connected master and slave (bytes)
system.iobus.pkt_size_system.ruby.l1_cntrl0.sequencer.mem-master-port::system.ruby.l1_cntrl1.sequencer.pio-slave-port            4                       # Cumulative packet size per connected master and slave (bytes)
system.iobus.pkt_size_system.ruby.l1_cntrl0.sequencer.mem-master-port::total          637                       # Cumulative packet size per connected master and slave (bytes)
system.iobus.pkt_size_system.ruby.l1_cntrl1.sequencer.mem-master-port::system.pc.south_bridge.ide.pio           26                       # Cumulative packet size per connected master and slave (bytes)
system.iobus.pkt_size_system.ruby.l1_cntrl1.sequencer.mem-master-port::system.pc.south_bridge.io_apic.pio           16                       # Cumulative packet size per connected master and slave (bytes)
system.iobus.pkt_size_system.ruby.l1_cntrl1.sequencer.mem-master-port::system.ruby.l1_cntrl0.sequencer.pio-slave-port            8                       # Cumulative packet size per connected master and slave (bytes)
system.iobus.pkt_size_system.ruby.l1_cntrl1.sequencer.mem-master-port::system.ruby.l1_cntrl1.sequencer.pio-slave-port          524                       # Cumulative packet size per connected master and slave (bytes)
system.iobus.pkt_size_system.ruby.l1_cntrl1.sequencer.mem-master-port::system.ruby.l1_cntrl2.sequencer.pio-slave-port            4                       # Cumulative packet size per connected master and slave (bytes)
system.iobus.pkt_size_system.ruby.l1_cntrl1.sequencer.mem-master-port::system.ruby.l1_cntrl3.sequencer.pio-slave-port            8                       # Cumulative packet size per connected master and slave (bytes)
system.iobus.pkt_size_system.ruby.l1_cntrl1.sequencer.mem-master-port::total          586                       # Cumulative packet size per connected master and slave (bytes)
system.iobus.pkt_size_system.ruby.l1_cntrl2.sequencer.mem-master-port::system.pc.south_bridge.ide.pio           26                       # Cumulative packet size per connected master and slave (bytes)
system.iobus.pkt_size_system.ruby.l1_cntrl2.sequencer.mem-master-port::system.pc.south_bridge.io_apic.pio           16                       # Cumulative packet size per connected master and slave (bytes)
system.iobus.pkt_size_system.ruby.l1_cntrl2.sequencer.mem-master-port::system.ruby.l1_cntrl2.sequencer.pio-slave-port          492                       # Cumulative packet size per connected master and slave (bytes)
system.iobus.pkt_size_system.ruby.l1_cntrl2.sequencer.mem-master-port::system.ruby.l1_cntrl3.sequencer.pio-slave-port            4                       # Cumulative packet size per connected master and slave (bytes)
system.iobus.pkt_size_system.ruby.l1_cntrl2.sequencer.mem-master-port::total          538                       # Cumulative packet size per connected master and slave (bytes)
system.iobus.pkt_size_system.ruby.l1_cntrl3.sequencer.mem-master-port::system.pc.south_bridge.ide.pio            6                       # Cumulative packet size per connected master and slave (bytes)
system.iobus.pkt_size_system.ruby.l1_cntrl3.sequencer.mem-master-port::system.pc.south_bridge.io_apic.pio           12                       # Cumulative packet size per connected master and slave (bytes)
system.iobus.pkt_size_system.ruby.l1_cntrl3.sequencer.mem-master-port::system.pc.com_1.pio           11                       # Cumulative packet size per connected master and slave (bytes)
system.iobus.pkt_size_system.ruby.l1_cntrl3.sequencer.mem-master-port::system.ruby.l1_cntrl0.sequencer.pio-slave-port           12                       # Cumulative packet size per connected master and slave (bytes)
system.iobus.pkt_size_system.ruby.l1_cntrl3.sequencer.mem-master-port::system.ruby.l1_cntrl1.sequencer.pio-slave-port            4                       # Cumulative packet size per connected master and slave (bytes)
system.iobus.pkt_size_system.ruby.l1_cntrl3.sequencer.mem-master-port::system.ruby.l1_cntrl2.sequencer.pio-slave-port            8                       # Cumulative packet size per connected master and slave (bytes)
system.iobus.pkt_size_system.ruby.l1_cntrl3.sequencer.mem-master-port::system.ruby.l1_cntrl3.sequencer.pio-slave-port          544                       # Cumulative packet size per connected master and slave (bytes)
system.iobus.pkt_size_system.ruby.l1_cntrl3.sequencer.mem-master-port::total          597                       # Cumulative packet size per connected master and slave (bytes)
system.iobus.pkt_size::total                     2390                       # Cumulative packet size per connected master and slave (bytes)
system.iobus.reqLayer2.occupancy               120500                       # Layer occupancy (ticks)
system.iobus.reqLayer2.utilization                0.0                       # Layer utilization (%)
system.iobus.reqLayer8.occupancy                31996                       # Layer occupancy (ticks)
system.iobus.reqLayer8.utilization                0.0                       # Layer utilization (%)
system.iobus.reqLayer12.occupancy              120000                       # Layer occupancy (ticks)
system.iobus.reqLayer12.utilization               0.0                       # Layer utilization (%)
system.iobus.reqLayer17.occupancy              327499                       # Layer occupancy (ticks)
system.iobus.reqLayer17.utilization               0.0                       # Layer utilization (%)
system.iobus.reqLayer18.occupancy              327997                       # Layer occupancy (ticks)
system.iobus.reqLayer18.utilization               0.0                       # Layer utilization (%)
system.iobus.reqLayer19.occupancy              315498                       # Layer occupancy (ticks)
system.iobus.reqLayer19.utilization               0.0                       # Layer utilization (%)
system.iobus.reqLayer20.occupancy              327494                       # Layer occupancy (ticks)
system.iobus.reqLayer20.utilization               0.0                       # Layer utilization (%)
system.iobus.respLayer0.occupancy               11497                       # Layer occupancy (ticks)
system.iobus.respLayer0.utilization               0.0                       # Layer utilization (%)
system.iobus.respLayer2.occupancy              362000                       # Layer occupancy (ticks)
system.iobus.respLayer2.utilization               0.0                       # Layer utilization (%)
system.iobus.respLayer4.occupancy              242500                       # Layer occupancy (ticks)
system.iobus.respLayer4.utilization               0.0                       # Layer utilization (%)
system.iobus.respLayer6.occupancy              223500                       # Layer occupancy (ticks)
system.iobus.respLayer6.utilization               0.0                       # Layer utilization (%)
system.iobus.respLayer8.occupancy              248000                       # Layer occupancy (ticks)
system.iobus.respLayer8.utilization               0.0                       # Layer utilization (%)
system.pc.south_bridge.ide.disks.dma_read_full_pages            0                       # Number of full page size DMA reads (not PRD).
system.pc.south_bridge.ide.disks.dma_read_bytes            0                       # Number of bytes transfered via DMA reads (not PRD).
system.pc.south_bridge.ide.disks.dma_read_txs            0                       # Number of DMA read transactions (not PRD).
system.pc.south_bridge.ide.disks.dma_write_full_pages           45                       # Number of full page size DMA writes.
system.pc.south_bridge.ide.disks.dma_write_bytes       184320                       # Number of bytes transfered via DMA writes.
system.pc.south_bridge.ide.disks.dma_write_txs           45                       # Number of DMA write transactions.
system.ruby.clk_domain.clock                      500                       # Clock period in ticks
system.ruby.delayHist::bucket_size                  4                       # delay histogram for all message
system.ruby.delayHist::max_bucket                  39                       # delay histogram for all message
system.ruby.delayHist::samples                1255441                       # delay histogram for all message
system.ruby.delayHist::mean                  0.310656                       # delay histogram for all message
system.ruby.delayHist::stdev                 1.546206                       # delay histogram for all message
system.ruby.delayHist                    |     1207002     96.14%     96.14% |         315      0.03%     96.17% |       48019      3.82%     99.99% |          46      0.00%    100.00% |          47      0.00%    100.00% |           2      0.00%    100.00% |           7      0.00%    100.00% |           2      0.00%    100.00% |           1      0.00%    100.00% |           0      0.00%    100.00% # delay histogram for all message
system.ruby.delayHist::total                  1255441                       # delay histogram for all message
system.ruby.outstanding_req_hist_seqr::bucket_size            1                      
system.ruby.outstanding_req_hist_seqr::max_bucket            9                      
system.ruby.outstanding_req_hist_seqr::samples    462223565                      
system.ruby.outstanding_req_hist_seqr::mean     1.000000                      
system.ruby.outstanding_req_hist_seqr::gmean     1.000000                      
system.ruby.outstanding_req_hist_seqr::stdev     0.000659                      
system.ruby.outstanding_req_hist_seqr    |           0      0.00%      0.00% |   462223364    100.00%    100.00% |         201      0.00%    100.00% |           0      0.00%    100.00% |           0      0.00%    100.00% |           0      0.00%    100.00% |           0      0.00%    100.00% |           0      0.00%    100.00% |           0      0.00%    100.00% |           0      0.00%    100.00%
system.ruby.outstanding_req_hist_seqr::total    462223565                      
system.ruby.latency_hist_seqr::bucket_size          128                      
system.ruby.latency_hist_seqr::max_bucket         1279                      
system.ruby.latency_hist_seqr::samples      462223565                      
[...]
system.ruby.Directory_Controller.M_DWRI.Memory_Ack           94      0.00%      0.00%
system.ruby.DMA_Controller.ReadRequest   |          47    100.00%    100.00% |           0      0.00%    100.00%
system.ruby.DMA_Controller.ReadRequest::total           47                      
system.ruby.DMA_Controller.WriteRequest  |        3008    100.00%    100.00% |           0      0.00%    100.00%
system.ruby.DMA_Controller.WriteRequest::total         3008                      
system.ruby.DMA_Controller.Data          |          47    100.00%    100.00% |           0      0.00%    100.00%
system.ruby.DMA_Controller.Data::total             47                      
system.ruby.DMA_Controller.Ack           |        3008    100.00%    100.00% |           0      0.00%    100.00%
system.ruby.DMA_Controller.Ack::total            3008                      
system.ruby.DMA_Controller.READY.ReadRequest |          47    100.00%    100.00% |           0      0.00%    100.00%
system.ruby.DMA_Controller.READY.ReadRequest::total           47                      
system.ruby.DMA_Controller.READY.WriteRequest |        3008    100.00%    100.00% |           0      0.00%    100.00%
system.ruby.DMA_Controller.READY.WriteRequest::total         3008                      
system.ruby.DMA_Controller.BUSY_RD.Data  |          47    100.00%    100.00% |           0      0.00%    100.00%
system.ruby.DMA_Controller.BUSY_RD.Data::total           47                      
system.ruby.DMA_Controller.BUSY_WR.Ack   |        3008    100.00%    100.00% |           0      0.00%    100.00%
system.ruby.DMA_Controller.BUSY_WR.Ack::total         3008                      
system.ruby.L1Cache_Controller.Load      |      727726      1.07%      1.07% |     3867617      5.69%      6.76% |      391371      0.58%      7.33% |    63005838     92.67%    100.00%
system.ruby.L1Cache_Controller.Load::total     67992552                      
system.ruby.L1Cache_Controller.Ifetch    |     4080630      1.01%      1.01% |    21759713      5.40%      6.41% |     1892362      0.47%      6.88% |   375508760     93.12%    100.00%
system.ruby.L1Cache_Controller.Ifetch::total    403241465                      
system.ruby.L1Cache_Controller.Store     |      581409      2.33%      2.33% |     2807819     11.25%     13.58% |      292026      1.17%     14.75% |    21277668     85.25%    100.00%
system.ruby.L1Cache_Controller.Store::total     24958922                      
system.ruby.L1Cache_Controller.Inv       |        4780     21.95%     21.95% |        7211     33.11%     55.06% |        4862     22.32%     77.38% |        4926     22.62%    100.00%
system.ruby.L1Cache_Controller.Inv::total        21779                      
system.ruby.L1Cache_Controller.L1_Replacement |       71138     14.34%     14.34% |      137856     27.79%     42.13% |       42420      8.55%     50.68% |      244653     49.32%    100.00%
system.ruby.L1Cache_Controller.L1_Replacement::total       496067                      
system.ruby.L1Cache_Controller.Fwd_GETX  |         620     20.47%     20.47% |        1291     42.62%     63.09% |         495     16.34%     79.43% |         623     20.57%    100.00%
system.ruby.L1Cache_Controller.Fwd_GETX::total         3029                      
system.ruby.L1Cache_Controller.Fwd_GETS  |        2347     28.16%     28.16% |        2766     33.19%     61.35% |        1948     23.37%     84.73% |        1273     15.27%    100.00%
system.ruby.L1Cache_Controller.Fwd_GETS::total         8334                      
system.ruby.L1Cache_Controller.Data      |         220     17.64%     17.64% |         414     33.20%     50.84% |         275     22.05%     72.89% |         338     27.11%    100.00%
system.ruby.L1Cache_Controller.Data::total         1247                      
system.ruby.L1Cache_Controller.Data_Exclusive |       20546      8.87%      8.87% |       23015      9.94%     18.81% |       11742      5.07%     23.88% |      176269     76.12%    100.00%
system.ruby.L1Cache_Controller.Data_Exclusive::total       231572                      
system.ruby.L1Cache_Controller.DataS_fromL1 |        1828     21.93%     21.93% |        2365     28.38%     50.31% |        2165     25.98%     76.29% |        1976     23.71%    100.00%
system.ruby.L1Cache_Controller.DataS_fromL1::total         8334                      
system.ruby.L1Cache_Controller.Data_all_Acks |       49026     18.97%     18.97% |      113127     43.76%     62.73% |       29899     11.57%     74.30% |       66446     25.70%    100.00%
system.ruby.L1Cache_Controller.Data_all_Acks::total       258498                      
system.ruby.L1Cache_Controller.Ack       |        4140     42.75%     42.75% |        2292     23.67%     66.41% |        1602     16.54%     82.95% |        1651     17.05%    100.00%
system.ruby.L1Cache_Controller.Ack::total         9685                      
system.ruby.L1Cache_Controller.Ack_all   |        2443     32.85%     32.85% |        2108     28.34%     61.19% |        1436     19.31%     80.50% |        1450     19.50%    100.00%
system.ruby.L1Cache_Controller.Ack_all::total         7437                      
system.ruby.L1Cache_Controller.WB_Ack    |       30531     10.12%     10.12% |       40170     13.31%     23.43% |       18542      6.14%     29.57% |      212545     70.43%    100.00%
system.ruby.L1Cache_Controller.WB_Ack::total       301788                      
system.ruby.L1Cache_Controller.NP.Load   |       25887     10.03%     10.03% |       29538     11.45%     21.48% |       16053      6.22%     27.70% |      186537     72.30%    100.00%
system.ruby.L1Cache_Controller.NP.Load::total       258015                      
system.ruby.L1Cache_Controller.NP.Ifetch |       34378     21.14%     21.14% |       89222     54.87%     76.02% |       18036     11.09%     87.11% |       20963     12.89%    100.00%
system.ruby.L1Cache_Controller.NP.Ifetch::total       162599                      
system.ruby.L1Cache_Controller.NP.Store  |       10995     14.45%     14.45% |       19096     25.09%     39.53% |        8870     11.65%     51.19% |       37153     48.81%    100.00%
system.ruby.L1Cache_Controller.NP.Store::total        76114                      
system.ruby.L1Cache_Controller.NP.Inv    |        3011     24.76%     24.76% |        4054     33.33%     58.09% |        1677     13.79%     71.88% |        3420     28.12%    100.00%
system.ruby.L1Cache_Controller.NP.Inv::total        12162                      
system.ruby.L1Cache_Controller.I.Load    |         240      9.83%      9.83% |         945     38.71%     48.55% |         998     40.88%     89.43% |         258     10.57%    100.00%
system.ruby.L1Cache_Controller.I.Load::total         2441                      
system.ruby.L1Cache_Controller.I.Ifetch  |          18     26.87%     26.87% |          11     16.42%     43.28% |          14     20.90%     64.18% |          24     35.82%    100.00%
system.ruby.L1Cache_Controller.I.Ifetch::total           67                      
system.ruby.L1Cache_Controller.I.Store   |         102     24.70%     24.70% |         108     26.15%     50.85% |         109     26.39%     77.24% |          94     22.76%    100.00%
system.ruby.L1Cache_Controller.I.Store::total          413                      
system.ruby.L1Cache_Controller.I.L1_Replacement |        1903     20.44%     20.44% |        3068     32.95%     53.39% |        2706     29.06%     82.45% |        1634     17.55%    100.00%
system.ruby.L1Cache_Controller.I.L1_Replacement::total         9311                      
system.ruby.L1Cache_Controller.S.Load    |       78954      0.35%      0.35% |      151929      0.68%      1.03% |       57478      0.26%      1.29% |    22030548     98.71%    100.00%
system.ruby.L1Cache_Controller.S.Load::total     22318909                      
system.ruby.L1Cache_Controller.S.Ifetch  |     4046234      1.00%      1.00% |    21670480      5.38%      6.38% |     1874312      0.46%      6.85% |   375487773     93.15%    100.00%
system.ruby.L1Cache_Controller.S.Ifetch::total    403078799                      
system.ruby.L1Cache_Controller.S.Store   |        2223     35.90%     35.90% |        1695     27.37%     63.28% |        1162     18.77%     82.04% |        1112     17.96%    100.00%
system.ruby.L1Cache_Controller.S.Store::total         6192                      
system.ruby.L1Cache_Controller.S.Inv     |        1537     17.71%     17.71% |        3039     35.02%     52.72% |        2955     34.05%     86.77% |        1148     13.23%    100.00%
system.ruby.L1Cache_Controller.S.Inv::total         8679                      
system.ruby.L1Cache_Controller.S.L1_Replacement |       38704     20.92%     20.92% |       94618     51.15%     72.08% |       21172     11.45%     83.52% |       30474     16.48%    100.00%
system.ruby.L1Cache_Controller.S.L1_Replacement::total       184968                      
system.ruby.L1Cache_Controller.E.Load    |      184212      1.08%      1.08% |      352507      2.07%      3.15% |       85789      0.50%      3.65% |    16412657     96.35%    100.00%
system.ruby.L1Cache_Controller.E.Load::total     17035165                      
system.ruby.L1Cache_Controller.E.Store   |        7986     38.60%     38.60% |        6603     31.92%     70.52% |        2823     13.65%     84.16% |        3276     15.84%    100.00%
system.ruby.L1Cache_Controller.E.Store::total        20688                      
system.ruby.L1Cache_Controller.E.Inv     |          43     17.27%     17.27% |          21      8.43%     25.70% |          55     22.09%     47.79% |         130     52.21%    100.00%
system.ruby.L1Cache_Controller.E.Inv::total          249                      
system.ruby.L1Cache_Controller.E.L1_Replacement |       11448      5.56%      5.56% |       14623      7.11%     12.67% |        7644      3.71%     16.38% |      172097     83.62%    100.00%
system.ruby.L1Cache_Controller.E.L1_Replacement::total       205812                      
system.ruby.L1Cache_Controller.E.Fwd_GETX |         335     25.53%     25.53% |         779     59.38%     84.91% |          69      5.26%     90.17% |         129      9.83%    100.00%
system.ruby.L1Cache_Controller.E.Fwd_GETX::total         1312                      
system.ruby.L1Cache_Controller.E.Fwd_GETS |         798     22.66%     22.66% |        1365     38.76%     61.41% |         830     23.57%     84.98% |         529     15.02%    100.00%
system.ruby.L1Cache_Controller.E.Fwd_GETS::total         3522                      
system.ruby.L1Cache_Controller.M.Load    |      438433      1.54%      1.54% |     3332698     11.74%     13.29% |      231053      0.81%     14.10% |    24375838     85.90%    100.00%
system.ruby.L1Cache_Controller.M.Load::total     28378022                      
system.ruby.L1Cache_Controller.M.Store   |      560103      2.25%      2.25% |     2780317     11.19%     13.44% |      279062      1.12%     14.56% |    21236033     85.44%    100.00%
system.ruby.L1Cache_Controller.M.Store::total     24855515                      
system.ruby.L1Cache_Controller.M.Inv     |         189     27.51%     27.51% |          96     13.97%     41.48% |         174     25.33%     66.81% |         228     33.19%    100.00%
system.ruby.L1Cache_Controller.M.Inv::total          687                      
system.ruby.L1Cache_Controller.M.L1_Replacement |       19083     19.88%     19.88% |       25547     26.62%     46.50% |       10898     11.35%     57.86% |       40448     42.14%    100.00%
system.ruby.L1Cache_Controller.M.L1_Replacement::total        95976                      
system.ruby.L1Cache_Controller.M.Fwd_GETX |         285     16.60%     16.60% |         512     29.82%     46.42% |         426     24.81%     71.23% |         494     28.77%    100.00%
system.ruby.L1Cache_Controller.M.Fwd_GETX::total         1717                      
system.ruby.L1Cache_Controller.M.Fwd_GETS |        1549     32.19%     32.19% |        1401     29.11%     61.31% |        1118     23.23%     84.54% |         744     15.46%    100.00%
system.ruby.L1Cache_Controller.M.Fwd_GETS::total         4812                      
system.ruby.L1Cache_Controller.IS.Data_Exclusive |       20546      8.87%      8.87% |       23015      9.94%     18.81% |       11742      5.07%     23.88% |      176269     76.12%    100.00%
system.ruby.L1Cache_Controller.IS.Data_Exclusive::total       231572                      
system.ruby.L1Cache_Controller.IS.DataS_fromL1 |        1828     21.93%     21.93% |        2365     28.38%     50.31% |        2165     25.98%     76.29% |        1976     23.71%    100.00%
system.ruby.L1Cache_Controller.IS.DataS_fromL1::total         8334                      
system.ruby.L1Cache_Controller.IS.Data_all_Acks |       38149     20.82%     20.82% |       94336     51.49%     72.31% |       21194     11.57%     83.88% |       29537     16.12%    100.00%
system.ruby.L1Cache_Controller.IS.Data_all_Acks::total       183216                      
system.ruby.L1Cache_Controller.IM.Data   |         220     17.64%     17.64% |         414     33.20%     50.84% |         275     22.05%     72.89% |         338     27.11%    100.00%
system.ruby.L1Cache_Controller.IM.Data::total         1247                      
system.ruby.L1Cache_Controller.IM.Data_all_Acks |       10877     14.45%     14.45% |       18791     24.96%     39.41% |        8705     11.56%     50.97% |       36909     49.03%    100.00%
system.ruby.L1Cache_Controller.IM.Data_all_Acks::total        75282                      
system.ruby.L1Cache_Controller.SM.Inv    |           0      0.00%      0.00% |           1     50.00%     50.00% |           1     50.00%    100.00% |           0      0.00%    100.00%
system.ruby.L1Cache_Controller.SM.Inv::total            2                      
system.ruby.L1Cache_Controller.SM.Ack    |        4140     42.75%     42.75% |        2292     23.67%     66.41% |        1602     16.54%     82.95% |        1651     17.05%    100.00%
system.ruby.L1Cache_Controller.SM.Ack::total         9685                      
system.ruby.L1Cache_Controller.SM.Ack_all |        2443     32.85%     32.85% |        2108     28.34%     61.19% |        1436     19.31%     80.50% |        1450     19.50%    100.00%
system.ruby.L1Cache_Controller.SM.Ack_all::total         7437                      
system.ruby.L1Cache_Controller.M_I.WB_Ack |       30531     10.12%     10.12% |       40170     13.31%     23.43% |       18542      6.14%     29.57% |      212545     70.43%    100.00%
system.ruby.L1Cache_Controller.M_I.WB_Ack::total       301788                      
system.ruby.L2Cache_Controller.L1_GET_INSTR       162666      0.00%      0.00%
system.ruby.L2Cache_Controller.L1_GETS         260505      0.00%      0.00%
system.ruby.L2Cache_Controller.L1_GETX          76533      0.00%      0.00%
system.ruby.L2Cache_Controller.L1_UPGRADE         6192      0.00%      0.00%
system.ruby.L2Cache_Controller.L1_PUTX         301788      0.00%      0.00%
system.ruby.L2Cache_Controller.L2_Replacement        12672      0.00%      0.00%
system.ruby.L2Cache_Controller.L2_Replacement_clean        11353      0.00%      0.00%
system.ruby.L2Cache_Controller.Mem_Data         41436      0.00%      0.00%
system.ruby.L2Cache_Controller.Mem_Ack          24128      0.00%      0.00%
system.ruby.L2Cache_Controller.WB_Data           5499      0.00%      0.00%
system.ruby.L2Cache_Controller.WB_Data_clean         3522      0.00%      0.00%
system.ruby.L2Cache_Controller.Ack               4878      0.00%      0.00%
system.ruby.L2Cache_Controller.Ack_all           5282      0.00%      0.00%
system.ruby.L2Cache_Controller.Unblock           8334      0.00%      0.00%
system.ruby.L2Cache_Controller.Exclusive_Unblock       314291      0.00%      0.00%
system.ruby.L2Cache_Controller.MEM_Inv            206      0.00%      0.00%
system.ruby.L2Cache_Controller.NP.L1_GET_INSTR         6791      0.00%      0.00%
system.ruby.L2Cache_Controller.NP.L1_GETS        18595      0.00%      0.00%
system.ruby.L2Cache_Controller.NP.L1_GETX        16050      0.00%      0.00%
system.ruby.L2Cache_Controller.SS.L1_GET_INSTR       155865      0.00%      0.00%
system.ruby.L2Cache_Controller.SS.L1_GETS        20524      0.00%      0.00%
system.ruby.L2Cache_Controller.SS.L1_GETX         1247      0.00%      0.00%
system.ruby.L2Cache_Controller.SS.L1_UPGRADE         6190      0.00%      0.00%
system.ruby.L2Cache_Controller.SS.L2_Replacement          152      0.00%      0.00%
system.ruby.L2Cache_Controller.SS.L2_Replacement_clean         4881      0.00%      0.00%
system.ruby.L2Cache_Controller.M.L1_GET_INSTR            9      0.00%      0.00%
system.ruby.L2Cache_Controller.M.L1_GETS       212990      0.00%      0.00%
system.ruby.L2Cache_Controller.M.L1_GETX        56203      0.00%      0.00%
system.ruby.L2Cache_Controller.M.L2_Replacement        12188      0.00%      0.00%
system.ruby.L2Cache_Controller.M.L2_Replacement_clean         5883      0.00%      0.00%
system.ruby.L2Cache_Controller.M.MEM_Inv           88      0.00%      0.00%
system.ruby.L2Cache_Controller.MT.L1_GETS         8334      0.00%      0.00%
system.ruby.L2Cache_Controller.MT.L1_GETX         3029      0.00%      0.00%
system.ruby.L2Cache_Controller.MT.L1_PUTX       301788      0.00%      0.00%
system.ruby.L2Cache_Controller.MT.L2_Replacement          332      0.00%      0.00%
system.ruby.L2Cache_Controller.MT.L2_Replacement_clean          589      0.00%      0.00%
system.ruby.L2Cache_Controller.MT.MEM_Inv           15      0.00%      0.00%
system.ruby.L2Cache_Controller.M_I.Mem_Ack        24128      0.00%      0.00%
system.ruby.L2Cache_Controller.M_I.MEM_Inv           88      0.00%      0.00%
system.ruby.L2Cache_Controller.MT_I.WB_Data          289      0.00%      0.00%
system.ruby.L2Cache_Controller.MT_I.Ack_all           58      0.00%      0.00%
system.ruby.L2Cache_Controller.MT_I.MEM_Inv           15      0.00%      0.00%
system.ruby.L2Cache_Controller.MCT_I.WB_Data          398      0.00%      0.00%
system.ruby.L2Cache_Controller.MCT_I.Ack_all          191      0.00%      0.00%
system.ruby.L2Cache_Controller.I_I.Ack           4700      0.00%      0.00%
system.ruby.L2Cache_Controller.I_I.Ack_all         4881      0.00%      0.00%
system.ruby.L2Cache_Controller.S_I.Ack            178      0.00%      0.00%
system.ruby.L2Cache_Controller.S_I.Ack_all          152      0.00%      0.00%
system.ruby.L2Cache_Controller.ISS.L1_GETS           13      0.00%      0.00%
system.ruby.L2Cache_Controller.ISS.Mem_Data        18582      0.00%      0.00%
system.ruby.L2Cache_Controller.IS.L1_GET_INSTR            1      0.00%      0.00%
system.ruby.L2Cache_Controller.IS.Mem_Data         6804      0.00%      0.00%
system.ruby.L2Cache_Controller.IM.Mem_Data        16050      0.00%      0.00%
system.ruby.L2Cache_Controller.SS_MB.L1_GETS           31      0.00%      0.00%
system.ruby.L2Cache_Controller.SS_MB.L1_UPGRADE            2      0.00%      0.00%
system.ruby.L2Cache_Controller.SS_MB.Exclusive_Unblock         7437      0.00%      0.00%
system.ruby.L2Cache_Controller.MT_MB.L1_GETS           14      0.00%      0.00%
system.ruby.L2Cache_Controller.MT_MB.L1_GETX            3      0.00%      0.00%
system.ruby.L2Cache_Controller.MT_MB.Exclusive_Unblock       306854      0.00%      0.00%
system.ruby.L2Cache_Controller.MT_IIB.L1_GETS            4      0.00%      0.00%
system.ruby.L2Cache_Controller.MT_IIB.L1_GETX            1      0.00%      0.00%
system.ruby.L2Cache_Controller.MT_IIB.WB_Data         4802      0.00%      0.00%
system.ruby.L2Cache_Controller.MT_IIB.WB_Data_clean         3512      0.00%      0.00%
system.ruby.L2Cache_Controller.MT_IIB.Unblock           20      0.00%      0.00%
system.ruby.L2Cache_Controller.MT_IB.WB_Data           10      0.00%      0.00%
system.ruby.L2Cache_Controller.MT_IB.WB_Data_clean           10      0.00%      0.00%
system.ruby.L2Cache_Controller.MT_SB.Unblock         8314      0.00%      0.00%

---------- End Simulation Statistics   ----------
