
---------- Begin Simulation Statistics ----------
sim_seconds                                  2.894115                       # Number of seconds simulated
sim_ticks                                2894114721500                       # Number of ticks simulated
final_tick                               54760242947001                       # Number of ticks from beginning of simulation (restored from checkpoints and never reset)
sim_freq                                 1000000000000                       # Frequency of simulated ticks
host_inst_rate                                 119601                       # Simulator instruction rate (inst/s)
host_op_rate                                   200438                       # Simulator op (including micro ops) rate (op/s)
host_tick_rate                              225769702                       # Simulator tick rate (ticks/s)
host_mem_usage                                1842168                       # Number of bytes of host memory used
host_seconds                                 12818.88                       # Real time elapsed on the host
sim_insts                                  1533147912                       # Number of instructions simulated
sim_ops                                    2569389275                       # Number of ops (including micro ops) simulated
system.voltage_domain.voltage                       1                       # Voltage in Volts
system.clk_domain.clock                          1000                       # Clock period in ticks
system.mem_ctrls.bytes_read::ruby.dir_cntrl0      9686528                       # Number of bytes read from this memory
system.mem_ctrls.bytes_read::total            9686528                       # Number of bytes read from this memory
system.mem_ctrls.bytes_written::ruby.dir_cntrl0      6894848                       # Number of bytes written to this memory
system.mem_ctrls.bytes_written::total         6894848                       # Number of bytes written to this memory
system.mem_ctrls.num_reads::ruby.dir_cntrl0       151352                       # Number of read requests responded to by this memory
system.mem_ctrls.num_reads::total              151352                       # Number of read requests responded to by this memory
system.mem_ctrls.num_writes::ruby.dir_cntrl0       107732                       # Number of write requests responded to by this memory
system.mem_ctrls.num_writes::total             107732                       # Number of write requests responded to by this memory
system.mem_ctrls.bw_read::ruby.dir_cntrl0      3346974                       # Total read bandwidth from this memory (bytes/s)
system.mem_ctrls.bw_read::total               3346974                       # Total read bandwidth from this memory (bytes/s)
system.mem_ctrls.bw_write::ruby.dir_cntrl0      2382369                       # Write bandwidth from this memory (bytes/s)
system.mem_ctrls.bw_write::total              2382369                       # Write bandwidth from this memory (bytes/s)
system.mem_ctrls.bw_total::ruby.dir_cntrl0      5729343                       # Total bandwidth to/from this memory (bytes/s)
system.mem_ctrls.bw_total::total              5729343                       # Total bandwidth to/from this memory (bytes/s)
system.mem_ctrls.readReqs                      151352                       # Number of read requests accepted
system.mem_ctrls.writeReqs                     107732                       # Number of write requests accepted
system.mem_ctrls.readBursts                    151352                       # Number of DRAM read bursts, including those serviced by the write queue
system.mem_ctrls.writeBursts                   107732                       # Number of DRAM write bursts, including those merged in the write queue
system.mem_ctrls.bytesReadDRAM                9685376                       # Total number of bytes read from DRAM
system.mem_ctrls.bytesReadWrQ                    1152                       # Total number of bytes read from write queue
system.mem_ctrls.bytesWritten                 6893120                       # Total number of bytes written to DRAM
system.mem_ctrls.bytesReadSys                 9686528                       # Total read bytes from the system interface side
system.mem_ctrls.bytesWrittenSys              6894848                       # Total written bytes from the system interface side
system.mem_ctrls.servicedByWrQ                     18                       # Number of DRAM read bursts serviced by the write queue
system.mem_ctrls.mergedWrBursts                     1                       # Number of DRAM write bursts merged with an existing one
system.mem_ctrls.neitherReadNorWriteReqs            0                       # Number of requests that are neither read nor write
system.mem_ctrls.perBankRdBursts::0              9508                       # Per bank write bursts
system.mem_ctrls.perBankRdBursts::1              9767                       # Per bank write bursts
system.mem_ctrls.perBankRdBursts::2             10548                       # Per bank write bursts
system.mem_ctrls.perBankRdBursts::3              8859                       # Per bank write bursts
system.mem_ctrls.perBankRdBursts::4              9154                       # Per bank write bursts
system.mem_ctrls.perBankRdBursts::5              9037                       # Per bank write bursts
system.mem_ctrls.perBankRdBursts::6              9199                       # Per bank write bursts
system.mem_ctrls.perBankRdBursts::7              9715                       # Per bank write bursts
system.mem_ctrls.perBankRdBursts::8              9418                       # Per bank write bursts
system.mem_ctrls.perBankRdBursts::9              9548                       # Per bank write bursts
system.mem_ctrls.perBankRdBursts::10             9450                       # Per bank write bursts
system.mem_ctrls.perBankRdBursts::11             9129                       # Per bank write bursts
system.mem_ctrls.perBankRdBursts::12             8912                       # Per bank write bursts
system.mem_ctrls.perBankRdBursts::13             9699                       # Per bank write bursts
system.mem_ctrls.perBankRdBursts::14             9890                       # Per bank write bursts
system.mem_ctrls.perBankRdBursts::15             9501                       # Per bank write bursts
system.mem_ctrls.perBankWrBursts::0              6879                       # Per bank write bursts
system.mem_ctrls.perBankWrBursts::1              6833                       # Per bank write bursts
system.mem_ctrls.perBankWrBursts::2              7377                       # Per bank write bursts
system.mem_ctrls.perBankWrBursts::3              6221                       # Per bank write bursts
system.mem_ctrls.perBankWrBursts::4              6414                       # Per bank write bursts
system.mem_ctrls.perBankWrBursts::5              6582                       # Per bank write bursts
system.mem_ctrls.perBankWrBursts::6              6443                       # Per bank write bursts
system.mem_ctrls.perBankWrBursts::7              6648                       # Per bank write bursts
system.mem_ctrls.perBankWrBursts::8              6734                       # Per bank write bursts
system.mem_ctrls.perBankWrBursts::9              6571                       # Per bank write bursts
system.mem_ctrls.perBankWrBursts::10             6988                       # Per bank write bursts
system.mem_ctrls.perBankWrBursts::11             6795                       # Per bank write bursts
system.mem_ctrls.perBankWrBursts::12             6703                       # Per bank write bursts
system.mem_ctrls.perBankWrBursts::13             6963                       # Per bank write bursts
system.mem_ctrls.perBankWrBursts::14             6797                       # Per bank write bursts
system.mem_ctrls.perBankWrBursts::15             6757                       # Per bank write bursts
system.mem_ctrls.numRdRetry                         0                       # Number of times read queue was full causing retry
system.mem_ctrls.numWrRetry                         0                       # Number of times write queue was full causing retry
system.mem_ctrls.totGap                  2894114656500                       # Total gap between requests
system.mem_ctrls.readPktSize::0                     0                       # Read request sizes (log2)
system.mem_ctrls.readPktSize::1                     0                       # Read request sizes (log2)
system.mem_ctrls.readPktSize::2                     0                       # Read request sizes (log2)
system.mem_ctrls.readPktSize::3                     0                       # Read request sizes (log2)
system.mem_ctrls.readPktSize::4                     0                       # Read request sizes (log2)
system.mem_ctrls.readPktSize::5                     0                       # Read request sizes (log2)
system.mem_ctrls.readPktSize::6                151352                       # Read request sizes (log2)
system.mem_ctrls.writePktSize::0                    0                       # Write request sizes (log2)
system.mem_ctrls.writePktSize::1                    0                       # Write request sizes (log2)
system.mem_ctrls.writePktSize::2                    0                       # Write request sizes (log2)
system.mem_ctrls.writePktSize::3                    0                       # Write request sizes (log2)
system.mem_ctrls.writePktSize::4                    0                       # Write request sizes (log2)
system.mem_ctrls.writePktSize::5                    0                       # Write request sizes (log2)
system.mem_ctrls.writePktSize::6               107732                       # Write request sizes (log2)
system.mem_ctrls.rdQLenPdf::0                  150620                       # What read queue length does an incoming req see
system.mem_ctrls.rdQLenPdf::1                     708                       # What read queue length does an incoming req see
system.mem_ctrls.rdQLenPdf::2                       6                       # What read queue length does an incoming req see
system.mem_ctrls.rdQLenPdf::3                       0                       # What read queue length does an incoming req see
system.mem_ctrls.rdQLenPdf::4                       0                       # What read queue length does an incoming req see
system.mem_ctrls.rdQLenPdf::5                       0                       # What read queue length does an incoming req see
system.mem_ctrls.rdQLenPdf::6                       0                       # What read queue length does an incoming req see
system.mem_ctrls.rdQLenPdf::7                       0                       # What read queue length does an incoming req see
system.mem_ctrls.rdQLenPdf::8                       0                       # What read queue length does an incoming req see
system.mem_ctrls.rdQLenPdf::9                       0                       # What read queue length does an incoming req see
system.mem_ctrls.rdQLenPdf::10                      0                       # What read queue length does an incoming req see
system.mem_ctrls.rdQLenPdf::11                      0                       # What read queue length does an incoming req see
system.mem_ctrls.rdQLenPdf::12                      0                       # What read queue length does an incoming req see
system.mem_ctrls.rdQLenPdf::13                      0                       # What read queue length does an incoming req see
system.mem_ctrls.rdQLenPdf::14                      0                       # What read queue length does an incoming req see
system.mem_ctrls.rdQLenPdf::15                      0                       # What read queue length does an incoming req see
system.mem_ctrls.rdQLenPdf::16                      0                       # What read queue length does an incoming req see
system.mem_ctrls.rdQLenPdf::17                      0                       # What read queue length does an incoming req see
system.mem_ctrls.rdQLenPdf::18                      0                       # What read queue length does an incoming req see
system.mem_ctrls.rdQLenPdf::19                      0                       # What read queue length does an incoming req see
system.mem_ctrls.rdQLenPdf::20                      0                       # What read queue length does an incoming req see
system.mem_ctrls.rdQLenPdf::21                      0                       # What read queue length does an incoming req see
system.mem_ctrls.rdQLenPdf::22                      0                       # What read queue length does an incoming req see
system.mem_ctrls.rdQLenPdf::23                      0                       # What read queue length does an incoming req see
system.mem_ctrls.rdQLenPdf::24                      0                       # What read queue length does an incoming req see
system.mem_ctrls.rdQLenPdf::25                      0                       # What read queue length does an incoming req see
system.mem_ctrls.rdQLenPdf::26                      0                       # What read queue length does an incoming req see
system.mem_ctrls.rdQLenPdf::27                      0                       # What read queue length does an incoming req see
system.mem_ctrls.rdQLenPdf::28                      0                       # What read queue length does an incoming req see
system.mem_ctrls.rdQLenPdf::29                      0                       # What read queue length does an incoming req see
system.mem_ctrls.rdQLenPdf::30                      0                       # What read queue length does an incoming req see
system.mem_ctrls.rdQLenPdf::31                      0                       # What read queue length does an incoming req see
system.mem_ctrls.wrQLenPdf::0                       0                       # What write queue length does an incoming req see
system.mem_ctrls.wrQLenPdf::1                       0                       # What write queue length does an incoming req see
system.mem_ctrls.wrQLenPdf::2                       0                       # What write queue length does an incoming req see
system.mem_ctrls.wrQLenPdf::3                       1                       # What write queue length does an incoming req see
system.mem_ctrls.wrQLenPdf::4                       1                       # What write queue length does an incoming req see
system.mem_ctrls.wrQLenPdf::5                       1                       # What write queue length does an incoming req see
system.mem_ctrls.wrQLenPdf::6                       1                       # What write queue length does an incoming req see
system.mem_ctrls.wrQLenPdf::7                       1                       # What write queue length does an incoming req see
system.mem_ctrls.wrQLenPdf::8                       1                       # What write queue length does an incoming req see
system.mem_ctrls.wrQLenPdf::9                       1                       # What write queue length does an incoming req see
system.mem_ctrls.wrQLenPdf::10                      1                       # What write queue length does an incoming req see
system.mem_ctrls.wrQLenPdf::11                      1                       # What write queue length does an incoming req see
system.mem_ctrls.wrQLenPdf::12                      1                       # What write queue length does an incoming req see
system.mem_ctrls.wrQLenPdf::13                      1                       # What write queue length does an incoming req see
system.mem_ctrls.wrQLenPdf::14                      1                       # What write queue length does an incoming req see
system.mem_ctrls.wrQLenPdf::15                    816                       # What write queue length does an incoming req see
system.mem_ctrls.wrQLenPdf::16                    839                       # What write queue length does an incoming req see
system.mem_ctrls.wrQLenPdf::17                   6605                       # What write queue length does an incoming req see
system.mem_ctrls.wrQLenPdf::18                   6626                       # What write queue length does an incoming req see
system.mem_ctrls.wrQLenPdf::19                   6624                       # What write queue length does an incoming req see
system.mem_ctrls.wrQLenPdf::20                   6724                       # What write queue length does an incoming req see
system.mem_ctrls.wrQLenPdf::21                   6639                       # What write queue length does an incoming req see
system.mem_ctrls.wrQLenPdf::22                   6641                       # What write queue length does an incoming req see
system.mem_ctrls.wrQLenPdf::23                   6643                       # What write queue length does an incoming req see
system.mem_ctrls.wrQLenPdf::24                   6609                       # What write queue length does an incoming req see
system.mem_ctrls.wrQLenPdf::25                   6629                       # What write queue length does an incoming req see
system.mem_ctrls.wrQLenPdf::26                   6650                       # What write queue length does an incoming req see
system.mem_ctrls.wrQLenPdf::27                   6614                       # What write queue length does an incoming req see
system.mem_ctrls.wrQLenPdf::28                   6604                       # What write queue length does an incoming req see
system.mem_ctrls.wrQLenPdf::29                   6608                       # What write queue length does an incoming req see
system.mem_ctrls.wrQLenPdf::30                   6604                       # What write queue length does an incoming req see
system.mem_ctrls.wrQLenPdf::31                   6608                       # What write queue length does an incoming req see
system.mem_ctrls.wrQLenPdf::32                   6598                       # What write queue length does an incoming req see
system.mem_ctrls.wrQLenPdf::33                     11                       # What write queue length does an incoming req see
system.mem_ctrls.wrQLenPdf::34                      6                       # What write queue length does an incoming req see
system.mem_ctrls.wrQLenPdf::35                      6                       # What write queue length does an incoming req see
system.mem_ctrls.wrQLenPdf::36                      5                       # What write queue length does an incoming req see
system.mem_ctrls.wrQLenPdf::37                      4                       # What write queue length does an incoming req see
system.mem_ctrls.wrQLenPdf::38                      4                       # What write queue length does an incoming req see
system.mem_ctrls.wrQLenPdf::39                      2                       # What write queue length does an incoming req see
system.mem_ctrls.wrQLenPdf::40                      0                       # What write queue length does an incoming req see
system.mem_ctrls.wrQLenPdf::41                      0                       # What write queue length does an incoming req see
system.mem_ctrls.wrQLenPdf::42                      0                       # What write queue length does an incoming req see
system.mem_ctrls.wrQLenPdf::43                      0                       # What write queue length does an incoming req see
system.mem_ctrls.wrQLenPdf::44                      0                       # What write queue length does an incoming req see
system.mem_ctrls.wrQLenPdf::45                      0                       # What write queue length does an incoming req see
system.mem_ctrls.wrQLenPdf::46                      0                       # What write queue length does an incoming req see
system.mem_ctrls.wrQLenPdf::47                      0                       # What write queue length does an incoming req see
system.mem_ctrls.wrQLenPdf::48                      0                       # What write queue length does an incoming req see
system.mem_ctrls.wrQLenPdf::49                      0                       # What write queue length does an incoming req see
system.mem_ctrls.wrQLenPdf::50                      0                       # What write queue length does an incoming req see
system.mem_ctrls.wrQLenPdf::51                      0                       # What write queue length does an incoming req see
system.mem_ctrls.wrQLenPdf::52                      0                       # What write queue length does an incoming req see
system.mem_ctrls.wrQLenPdf::53                      0                       # What write queue length does an incoming req see
system.mem_ctrls.wrQLenPdf::54                      0                       # What write queue length does an incoming req see
system.mem_ctrls.wrQLenPdf::55                      0                       # What write queue length does an incoming req see
system.mem_ctrls.wrQLenPdf::56                      0                       # What write queue length does an incoming req see
system.mem_ctrls.wrQLenPdf::57                      0                       # What write queue length does an incoming req see
system.mem_ctrls.wrQLenPdf::58                      0                       # What write queue length does an incoming req see
system.mem_ctrls.wrQLenPdf::59                      0                       # What write queue length does an incoming req see
system.mem_ctrls.wrQLenPdf::60                      0                       # What write queue length does an incoming req see
system.mem_ctrls.wrQLenPdf::61                      0                       # What write queue length does an incoming req see
system.mem_ctrls.wrQLenPdf::62                      0                       # What write queue length does an incoming req see
system.mem_ctrls.wrQLenPdf::63                      0                       # What write queue length does an incoming req see
system.mem_ctrls.bytesPerActivate::samples        39685                       # Bytes accessed per row activation
system.mem_ctrls.bytesPerActivate::mean    417.748973                       # Bytes accessed per row activation
system.mem_ctrls.bytesPerActivate::gmean   215.305543                       # Bytes accessed per row activation
system.mem_ctrls.bytesPerActivate::stdev   423.662231                       # Bytes accessed per row activation
system.mem_ctrls.bytesPerActivate::0-127        15826     39.88%     39.88% # Bytes accessed per row activation
system.mem_ctrls.bytesPerActivate::128-255         7037     17.73%     57.61% # Bytes accessed per row activation
system.mem_ctrls.bytesPerActivate::256-383         2053      5.17%     62.78% # Bytes accessed per row activation
system.mem_ctrls.bytesPerActivate::384-511          947      2.39%     65.17% # Bytes accessed per row activation
system.mem_ctrls.bytesPerActivate::512-639          601      1.51%     66.69% # Bytes accessed per row activation
system.mem_ctrls.bytesPerActivate::640-767          460      1.16%     67.84% # Bytes accessed per row activation
system.mem_ctrls.bytesPerActivate::768-895          421      1.06%     68.91% # Bytes accessed per row activation
system.mem_ctrls.bytesPerActivate::896-1023          538      1.36%     70.26% # Bytes accessed per row activation
system.mem_ctrls.bytesPerActivate::1024-1151        11802     29.74%    100.00% # Bytes accessed per row activation
system.mem_ctrls.bytesPerActivate::total        39685                       # Bytes accessed per row activation
system.mem_ctrls.rdPerTurnAround::samples         6598                       # Reads before turning the bus around for writes
system.mem_ctrls.rdPerTurnAround::mean      25.445286                       # Reads before turning the bus around for writes
system.mem_ctrls.rdPerTurnAround::stdev    238.816030                       # Reads before turning the bus around for writes
system.mem_ctrls.rdPerTurnAround::0-1023         6593     99.92%     99.92% # Reads before turning the bus around for writes
system.mem_ctrls.rdPerTurnAround::1024-2047            3      0.05%     99.97% # Reads before turning the bus around for writes
system.mem_ctrls.rdPerTurnAround::2048-3071            1      0.02%     99.98% # Reads before turning the bus around for writes
system.mem_ctrls.rdPerTurnAround::18432-19455            1      0.02%    100.00% # Reads before turning the bus around for writes
system.mem_ctrls.rdPerTurnAround::total          6598                       # Reads before turning the bus around for writes
system.mem_ctrls.wrPerTurnAround::samples         6598                       # Writes before turning the bus around for reads
system.mem_ctrls.wrPerTurnAround::mean      16.323886                       # Writes before turning the bus around for reads
system.mem_ctrls.wrPerTurnAround::gmean     16.297015                       # Writes before turning the bus around for reads
system.mem_ctrls.wrPerTurnAround::stdev      1.015184                       # Writes before turning the bus around for reads
system.mem_ctrls.wrPerTurnAround::16             5778     87.57%     87.57% # Writes before turning the bus around for reads
system.mem_ctrls.wrPerTurnAround::17                4      0.06%     87.63% # Writes before turning the bus around for reads
system.mem_ctrls.wrPerTurnAround::18              652      9.88%     97.51% # Writes before turning the bus around for reads
system.mem_ctrls.wrPerTurnAround::19               41      0.62%     98.14% # Writes before turning the bus around for reads
system.mem_ctrls.wrPerTurnAround::20               23      0.35%     98.48% # Writes before turning the bus around for reads
system.mem_ctrls.wrPerTurnAround::21               55      0.83%     99.32% # Writes before turning the bus around for reads
system.mem_ctrls.wrPerTurnAround::22               17      0.26%     99.58% # Writes before turning the bus around for reads
system.mem_ctrls.wrPerTurnAround::23               19      0.29%     99.86% # Writes before turning the bus around for reads
system.mem_ctrls.wrPerTurnAround::26                4      0.06%     99.92% # Writes before turning the bus around for reads
system.mem_ctrls.wrPerTurnAround::27                1      0.02%     99.94% # Writes before turning the bus around for reads
system.mem_ctrls.wrPerTurnAround::29                3      0.05%     99.98% # Writes before turning the bus around for reads
system.mem_ctrls.wrPerTurnAround::30                1      0.02%    100.00% # Writes before turning the bus around for reads
system.mem_ctrls.wrPerTurnAround::total          6598                       # Writes before turning the bus around for reads
system.mem_ctrls.totQLat                   1583412497                       # Total ticks spent queuing
system.mem_ctrls.totMemAccLat              4420924997                       # Total ticks spent from burst creation until serviced by the DRAM
system.mem_ctrls.totBusLat                  756670000                       # Total ticks spent in databus transfers
system.mem_ctrls.avgQLat                     10463.03                       # Average queueing delay per DRAM burst
system.mem_ctrls.avgBusLat                    5000.00                       # Average bus latency per DRAM burst
system.mem_ctrls.avgMemAccLat                29213.03                       # Average memory access latency per DRAM burst
system.mem_ctrls.avgRdBW                         3.35                       # Average DRAM read bandwidth in MiByte/s
system.mem_ctrls.avgWrBW                         2.38                       # Average achieved write bandwidth in MiByte/s
system.mem_ctrls.avgRdBWSys                      3.35                       # Average system read bandwidth in MiByte/s
system.mem_ctrls.avgWrBWSys                      2.38                       # Average system write bandwidth in MiByte/s
system.mem_ctrls.peakBW                      12800.00                       # Theoretical peak bandwidth in MiByte/s
system.mem_ctrls.busUtil                         0.04                       # Data bus utilization in percentage
system.mem_ctrls.busUtilRead                     0.03                       # Data bus utilization in percentage for reads
system.mem_ctrls.busUtilWrite                    0.02                       # Data bus utilization in percentage for writes
system.mem_ctrls.avgRdQLen                       1.00                       # Average read queue length when enqueuing
system.mem_ctrls.avgWrQLen                      23.40                       # Average write queue length when enqueuing
system.mem_ctrls.readRowHits                   122326                       # Number of row buffer hits during reads
system.mem_ctrls.writeRowHits                   97026                       # Number of row buffer hits during writes
system.mem_ctrls.readRowHitRate                 80.83                       # Row buffer hit rate for reads
system.mem_ctrls.writeRowHitRate                90.06                       # Row buffer hit rate for writes
system.mem_ctrls.avgGap                   11170564.98                       # Average gap between requests
system.mem_ctrls.pageHitRate                    84.67                       # Row buffer hit rate, read and write combined
system.mem_ctrls_0.actEnergy                169933680                       # Energy for activate commands per rank (pJ)
system.mem_ctrls_0.preEnergy                 92721750                       # Energy for precharge commands per rank (pJ)
system.mem_ctrls_0.readEnergy               655652400                       # Energy for read commands per rank (pJ)
system.mem_ctrls_0.writeEnergy              346012560                       # Energy for write commands per rank (pJ)
system.mem_ctrls_0.refreshEnergy         189272809440                       # Energy for refresh commands per rank (pJ)
system.mem_ctrls_0.actBackEnergy          87052169565                       # Energy for active background per rank (pJ)
system.mem_ctrls_0.preBackEnergy         1662342490500                       # Energy for precharge background per rank (pJ)
system.mem_ctrls_0.totalEnergy           1939931789895                       # Total energy per rank (pJ)
system.mem_ctrls_0.averagePower            669.440598                       # Core power per rank (mW)
system.mem_ctrls_0.memoryStateTime::IDLE 2763800249250                       # Time in different power states
system.mem_ctrls_0.memoryStateTime::REF   96640960000                       # Time in different power states
system.mem_ctrls_0.memoryStateTime::PRE_PDN            0                       # Time in different power states
system.mem_ctrls_0.memoryStateTime::ACT   33676774750                       # Time in different power states
system.mem_ctrls_0.memoryStateTime::ACT_PDN            0                       # Time in different power states
system.mem_ctrls_1.actEnergy                159954480                       # Energy for activate commands per rank (pJ)
system.mem_ctrls_1.preEnergy                 87276750                       # Energy for precharge commands per rank (pJ)
system.mem_ctrls_1.readEnergy               654318600                       # Energy for read commands per rank (pJ)
system.mem_ctrls_1.writeEnergy              351915840                       # Energy for write commands per rank (pJ)
system.mem_ctrls_1.refreshEnergy         189272809440                       # Energy for refresh commands per rank (pJ)
system.mem_ctrls_1.actBackEnergy          84205160640                       # Energy for active background per rank (pJ)
system.mem_ctrls_1.preBackEnergy         1664839864500                       # Energy for precharge background per rank (pJ)
system.mem_ctrls_1.totalEnergy           1939571300250                       # Total energy per rank (pJ)
system.mem_ctrls_1.averagePower            669.316199                       # Core power per rank (mW)
system.mem_ctrls_1.memoryStateTime::IDLE 2767959729500                       # Time in different power states
system.mem_ctrls_1.memoryStateTime::REF   96640960000                       # Time in different power states
system.mem_ctrls_1.memoryStateTime::PRE_PDN            0                       # Time in different power states
system.mem_ctrls_1.memoryStateTime::ACT   29519639250                       # Time in different power states
system.mem_ctrls_1.memoryStateTime::ACT_PDN            0                       # Time in different power states
system.cpu_voltage_domain.voltage                   1                       # Voltage in Volts
system.cpu_clk_domain.clock                       500                       # Clock period in ticks
system.cpu0.apic_clk_domain.clock                8000                       # Clock period in ticks
system.cpu0.numCycles                      5791278334                       # number of cpu cycles simulated
system.cpu0.numWorkItemsStarted                     0                       # number of work items this cpu started
system.cpu0.numWorkItemsCompleted                   0                       # number of work items this cpu completed
system.cpu0.kern.inst.arm                           0                       # number of arm instructions executed
system.cpu0.kern.inst.quiesce                       0                       # number of quiesce instructions executed
system.cpu0.committedInsts                    2849190                       # Number of instructions committed
system.cpu0.committedOps                      6083626                       # Number of ops (including micro ops) committed
system.cpu0.num_int_alu_accesses              5967792                       # Number of integer alu accesses
system.cpu0.num_fp_alu_accesses                   165                       # Number of float alu accesses
system.cpu0.num_func_calls                     170492                       # number of times a function call or return occured
system.cpu0.num_conditional_control_insts       467035                       # number of instructions that are conditional controls
system.cpu0.num_int_insts                     5967792                       # number of integer instructions
system.cpu0.num_fp_insts                          165                       # number of float instructions
system.cpu0.num_int_register_reads           11830276                       # number of times the integer registers were read
system.cpu0.num_int_register_writes           4904518                       # number of times the integer registers were written
system.cpu0.num_fp_register_reads                 273                       # number of times the floating registers were read
system.cpu0.num_fp_register_writes                133                       # number of times the floating registers were written
system.cpu0.num_cc_register_reads             3635803                       # number of times the CC registers were read
system.cpu0.num_cc_register_writes            1913186                       # number of times the CC registers were written
system.cpu0.num_mem_refs                      1341409                       # number of memory refs
system.cpu0.num_load_insts                     833884                       # Number of load instructions
system.cpu0.num_store_insts                    507525                       # Number of store instructions
system.cpu0.num_idle_cycles              5779535363.816299                       # Number of idle cycles
system.cpu0.num_busy_cycles              11742970.183700                       # Number of busy cycles
system.cpu0.not_idle_fraction                0.002028                       # Percentage of non-idle cycles
system.cpu0.idle_fraction                    0.997972                       # Percentage of idle cycles
system.cpu0.Branches                           687571                       # Number of branches fetched
system.cpu0.op_class::No_OpClass                84229      1.38%      1.38% # Class of executed instruction
system.cpu0.op_class::IntAlu                  4618387     75.91%     77.30% # Class of executed instruction
system.cpu0.op_class::IntMult                   12721      0.21%     77.51% # Class of executed instruction
system.cpu0.op_class::IntDiv                    26782      0.44%     77.95% # Class of executed instruction
system.cpu0.op_class::FloatAdd                    122      0.00%     77.95% # Class of executed instruction
system.cpu0.op_class::FloatCmp                      0      0.00%     77.95% # Class of executed instruction
system.cpu0.op_class::FloatCvt                      0      0.00%     77.95% # Class of executed instruction
system.cpu0.op_class::FloatMult                     0      0.00%     77.95% # Class of executed instruction
system.cpu0.op_class::FloatDiv                      0      0.00%     77.95% # Class of executed instruction
system.cpu0.op_class::FloatSqrt                     0      0.00%     77.95% # Class of executed instruction
system.cpu0.op_class::SimdAdd                       0      0.00%     77.95% # Class of executed instruction
system.cpu0.op_class::SimdAddAcc                    0      0.00%     77.95% # Class of executed instruction
system.cpu0.op_class::SimdAlu                       0      0.00%     77.95% # Class of executed instruction
system.cpu0.op_class::SimdCmp                       0      0.00%     77.95% # Class of executed instruction
system.cpu0.op_class::SimdCvt                       0      0.00%     77.95% # Class of executed instruction
system.cpu0.op_class::SimdMisc                      0      0.00%     77.95% # Class of executed instruction
system.cpu0.op_class::SimdMult                      0      0.00%     77.95% # Class of executed instruction
system.cpu0.op_class::SimdMultAcc                   0      0.00%     77.95% # Class of executed instruction
system.cpu0.op_class::SimdShift                     0      0.00%     77.95% # Class of executed instruction
system.cpu0.op_class::SimdShiftAcc                  0      0.00%     77.95% # Class of executed instruction
system.cpu0.op_class::SimdSqrt                      0      0.00%     77.95% # Class of executed instruction
system.cpu0.op_class::SimdFloatAdd                  0      0.00%     77.95% # Class of executed instruction
system.cpu0.op_class::SimdFloatAlu                  0      0.00%     77.95% # Class of executed instruction
system.cpu0.op_class::SimdFloatCmp                  0      0.00%     77.95% # Class of executed instruction
system.cpu0.op_class::SimdFloatCvt                  0      0.00%     77.95% # Class of executed instruction
system.cpu0.op_class::SimdFloatDiv                  0      0.00%     77.95% # Class of executed instruction
system.cpu0.op_class::SimdFloatMisc                 0      0.00%     77.95% # Class of executed instruction
system.cpu0.op_class::SimdFloatMult                 0      0.00%     77.95% # Class of executed instruction
system.cpu0.op_class::SimdFloatMultAcc              0      0.00%     77.95% # Class of executed instruction
system.cpu0.op_class::SimdFloatSqrt                 0      0.00%     77.95% # Class of executed instruction
system.cpu0.op_class::MemRead                  833884     13.71%     91.66% # Class of executed instruction
system.cpu0.op_class::MemWrite                 507525      8.34%    100.00% # Class of executed instruction
system.cpu0.op_class::IprAccess                     0      0.00%    100.00% # Class of executed instruction
system.cpu0.op_class::InstPrefetch                  0      0.00%    100.00% # Class of executed instruction
system.cpu0.op_class::total                   6083650                       # Class of executed instruction
system.cpu1.apic_clk_domain.clock                8000                       # Clock period in ticks
system.cpu1.numCycles                      5788878949                       # number of cpu cycles simulated
system.cpu1.numWorkItemsStarted                     0                       # number of work items this cpu started
system.cpu1.numWorkItemsCompleted                   0                       # number of work items this cpu completed
system.cpu1.kern.inst.arm                           0                       # number of arm instructions executed
system.cpu1.kern.inst.quiesce                       0                       # number of quiesce instructions executed
system.cpu1.committedInsts                 1522920352                       # Number of instructions committed
system.cpu1.committedOps                   2548243794                       # Number of ops (including micro ops) committed
system.cpu1.num_int_alu_accesses           1952694851                       # Number of integer alu accesses
system.cpu1.num_fp_alu_accesses             965601665                       # Number of float alu accesses
system.cpu1.num_func_calls                   35517789                       # number of times a function call or return occured
system.cpu1.num_conditional_control_insts    171927269                       # number of instructions that are conditional controls
system.cpu1.num_int_insts                  1952694851                       # number of integer instructions
system.cpu1.num_fp_insts                    965601665                       # number of float instructions
system.cpu1.num_int_register_reads         4135880913                       # number of times the integer registers were read
system.cpu1.num_int_register_writes        1332096974                       # number of times the integer registers were written
system.cpu1.num_fp_register_reads          1529965546                       # number of times the floating registers were read
system.cpu1.num_fp_register_writes          790021367                       # number of times the floating registers were written
system.cpu1.num_cc_register_reads          1449469003                       # number of times the CC registers were read
system.cpu1.num_cc_register_writes          551309034                       # number of times the CC registers were written
system.cpu1.num_mem_refs                    645344282                       # number of memory refs
system.cpu1.num_load_insts                  478750399                       # Number of load instructions
system.cpu1.num_store_insts                 166593883                       # Number of store instructions
system.cpu1.num_idle_cycles              4062281.783651                       # Number of idle cycles
system.cpu1.num_busy_cycles              5784816667.216349                       # Number of busy cycles
system.cpu1.not_idle_fraction                0.999298                       # Percentage of non-idle cycles
system.cpu1.idle_fraction                    0.000702                       # Percentage of idle cycles
system.cpu1.Branches                        231849834                       # Number of branches fetched
system.cpu1.op_class::No_OpClass              3402508      0.13%      0.13% # Class of executed instruction
system.cpu1.op_class::IntAlu               1475990479     57.92%     58.06% # Class of executed instruction
system.cpu1.op_class::IntMult                 4735223      0.19%     58.24% # Class of executed instruction
system.cpu1.op_class::IntDiv                 19610381      0.77%     59.01% # Class of executed instruction
system.cpu1.op_class::FloatAdd              398092941     15.62%     74.63% # Class of executed instruction
system.cpu1.op_class::FloatCmp                      0      0.00%     74.63% # Class of executed instruction
system.cpu1.op_class::FloatCvt                      0      0.00%     74.63% # Class of executed instruction
system.cpu1.op_class::FloatMult                     0      0.00%     74.63% # Class of executed instruction
system.cpu1.op_class::FloatDiv                1068156      0.04%     74.67% # Class of executed instruction
system.cpu1.op_class::FloatSqrt                     0      0.00%     74.67% # Class of executed instruction
system.cpu1.op_class::SimdAdd                       0      0.00%     74.67% # Class of executed instruction
system.cpu1.op_class::SimdAddAcc                    0      0.00%     74.67% # Class of executed instruction
system.cpu1.op_class::SimdAlu                       0      0.00%     74.67% # Class of executed instruction
system.cpu1.op_class::SimdCmp                       0      0.00%     74.67% # Class of executed instruction
system.cpu1.op_class::SimdCvt                       0      0.00%     74.67% # Class of executed instruction
system.cpu1.op_class::SimdMisc                      0      0.00%     74.67% # Class of executed instruction
system.cpu1.op_class::SimdMult                      0      0.00%     74.67% # Class of executed instruction
system.cpu1.op_class::SimdMultAcc                   0      0.00%     74.67% # Class of executed instruction
system.cpu1.op_class::SimdShift                     0      0.00%     74.67% # Class of executed instruction
system.cpu1.op_class::SimdShiftAcc                  0      0.00%     74.67% # Class of executed instruction
system.cpu1.op_class::SimdSqrt                      0      0.00%     74.67% # Class of executed instruction
system.cpu1.op_class::SimdFloatAdd                  0      0.00%     74.67% # Class of executed instruction
system.cpu1.op_class::SimdFloatAlu                  0      0.00%     74.67% # Class of executed instruction
system.cpu1.op_class::SimdFloatCmp                  0      0.00%     74.67% # Class of executed instruction
system.cpu1.op_class::SimdFloatCvt                  0      0.00%     74.67% # Class of executed instruction
system.cpu1.op_class::SimdFloatDiv                  0      0.00%     74.67% # Class of executed instruction
system.cpu1.op_class::SimdFloatMisc                 0      0.00%     74.67% # Class of executed instruction
system.cpu1.op_class::SimdFloatMult                 0      0.00%     74.67% # Class of executed instruction
system.cpu1.op_class::SimdFloatMultAcc              0      0.00%     74.67% # Class of executed instruction
system.cpu1.op_class::SimdFloatSqrt                 0      0.00%     74.67% # Class of executed instruction
system.cpu1.op_class::MemRead               478750399     18.79%     93.46% # Class of executed instruction
system.cpu1.op_class::MemWrite              166593883      6.54%    100.00% # Class of executed instruction
system.cpu1.op_class::IprAccess                     0      0.00%    100.00% # Class of executed instruction
system.cpu1.op_class::InstPrefetch                  0      0.00%    100.00% # Class of executed instruction
system.cpu1.op_class::total                2548243970                       # Class of executed instruction
system.cpu2.apic_clk_domain.clock                8000                       # Clock period in ticks
system.cpu2.numCycles                      5789273198                       # number of cpu cycles simulated
system.cpu2.numWorkItemsStarted                     0                       # number of work items this cpu started
system.cpu2.numWorkItemsCompleted                   0                       # number of work items this cpu completed
system.cpu2.kern.inst.arm                           0                       # number of arm instructions executed
system.cpu2.kern.inst.quiesce                       0                       # number of quiesce instructions executed
system.cpu2.committedInsts                    2450268                       # Number of instructions committed
system.cpu2.committedOps                      5221839                       # Number of ops (including micro ops) committed
system.cpu2.num_int_alu_accesses              5120784                       # Number of integer alu accesses
system.cpu2.num_fp_alu_accesses                     0                       # Number of float alu accesses
system.cpu2.num_func_calls                     138248                       # number of times a function call or return occured
system.cpu2.num_conditional_control_insts       420140                       # number of instructions that are conditional controls
system.cpu2.num_int_insts                     5120784                       # number of integer instructions
system.cpu2.num_fp_insts                            0                       # number of float instructions
system.cpu2.num_int_register_reads           10128557                       # number of times the integer registers were read
system.cpu2.num_int_register_writes           4221214                       # number of times the integer registers were written
system.cpu2.num_fp_register_reads                   0                       # number of times the floating registers were read
system.cpu2.num_fp_register_writes                  0                       # number of times the floating registers were written
system.cpu2.num_cc_register_reads             3204868                       # number of times the CC registers were read
system.cpu2.num_cc_register_writes            1633932                       # number of times the CC registers were written
system.cpu2.num_mem_refs                      1145207                       # number of memory refs
system.cpu2.num_load_insts                     717434                       # Number of load instructions
system.cpu2.num_store_insts                    427773                       # Number of store instructions
system.cpu2.num_idle_cycles              5779416941.051631                       # Number of idle cycles
system.cpu2.num_busy_cycles              9856256.948369                       # Number of busy cycles
system.cpu2.not_idle_fraction                0.001703                       # Percentage of non-idle cycles
system.cpu2.idle_fraction                    0.998297                       # Percentage of idle cycles
system.cpu2.Branches                           600913                       # Number of branches fetched
system.cpu2.op_class::No_OpClass                80633      1.54%      1.54% # Class of executed instruction
system.cpu2.op_class::IntAlu                  3958976     75.82%     77.36% # Class of executed instruction
system.cpu2.op_class::IntMult                    9544      0.18%     77.54% # Class of executed instruction
system.cpu2.op_class::IntDiv                    27482      0.53%     78.07% # Class of executed instruction
system.cpu2.op_class::FloatAdd                      0      0.00%     78.07% # Class of executed instruction
system.cpu2.op_class::FloatCmp                      0      0.00%     78.07% # Class of executed instruction
system.cpu2.op_class::FloatCvt                      0      0.00%     78.07% # Class of executed instruction
system.cpu2.op_class::FloatMult                     0      0.00%     78.07% # Class of executed instruction
system.cpu2.op_class::FloatDiv                      0      0.00%     78.07% # Class of executed instruction
system.cpu2.op_class::FloatSqrt                     0      0.00%     78.07% # Class of executed instruction
system.cpu2.op_class::SimdAdd                       0      0.00%     78.07% # Class of executed instruction
system.cpu2.op_class::SimdAddAcc                    0      0.00%     78.07% # Class of executed instruction
system.cpu2.op_class::SimdAlu                       0      0.00%     78.07% # Class of executed instruction
system.cpu2.op_class::SimdCmp                       0      0.00%     78.07% # Class of executed instruction
system.cpu2.op_class::SimdCvt                       0      0.00%     78.07% # Class of executed instruction
system.cpu2.op_class::SimdMisc                      0      0.00%     78.07% # Class of executed instruction
system.cpu2.op_class::SimdMult                      0      0.00%     78.07% # Class of executed instruction
system.cpu2.op_class::SimdMultAcc                   0      0.00%     78.07% # Class of executed instruction
system.cpu2.op_class::SimdShift                     0      0.00%     78.07% # Class of executed instruction
system.cpu2.op_class::SimdShiftAcc                  0      0.00%     78.07% # Class of executed instruction
system.cpu2.op_class::SimdSqrt                      0      0.00%     78.07% # Class of executed instruction
system.cpu2.op_class::SimdFloatAdd                  0      0.00%     78.07% # Class of executed instruction
system.cpu2.op_class::SimdFloatAlu                  0      0.00%     78.07% # Class of executed instruction
system.cpu2.op_class::SimdFloatCmp                  0      0.00%     78.07% # Class of executed instruction
system.cpu2.op_class::SimdFloatCvt                  0      0.00%     78.07% # Class of executed instruction
system.cpu2.op_class::SimdFloatDiv                  0      0.00%     78.07% # Class of executed instruction
system.cpu2.op_class::SimdFloatMisc                 0      0.00%     78.07% # Class of executed instruction
system.cpu2.op_class::SimdFloatMult                 0      0.00%     78.07% # Class of executed instruction
system.cpu2.op_class::SimdFloatMultAcc              0      0.00%     78.07% # Class of executed instruction
system.cpu2.op_class::SimdFloatSqrt                 0      0.00%     78.07% # Class of executed instruction
system.cpu2.op_class::MemRead                  717434     13.74%     91.81% # Class of executed instruction
system.cpu2.op_class::MemWrite                 427773      8.19%    100.00% # Class of executed instruction
system.cpu2.op_class::IprAccess                     0      0.00%    100.00% # Class of executed instruction
system.cpu2.op_class::InstPrefetch                  0      0.00%    100.00% # Class of executed instruction
system.cpu2.op_class::total                   5221842                       # Class of executed instruction
system.cpu3.apic_clk_domain.clock                8000                       # Clock period in ticks
system.cpu3.numCycles                      5786099214                       # number of cpu cycles simulated
system.cpu3.numWorkItemsStarted                     0                       # number of work items this cpu started
system.cpu3.numWorkItemsCompleted                   0                       # number of work items this cpu completed
system.cpu3.kern.inst.arm                           0                       # number of arm instructions executed
system.cpu3.kern.inst.quiesce                       0                       # number of quiesce instructions executed
system.cpu3.committedInsts                    3374061                       # Number of instructions committed
system.cpu3.committedOps                      6948051                       # Number of ops (including micro ops) committed
system.cpu3.num_int_alu_accesses              6824815                       # Number of integer alu accesses
system.cpu3.num_fp_alu_accesses                  1778                       # Number of float alu accesses
system.cpu3.num_func_calls                     170340                       # number of times a function call or return occured
system.cpu3.num_conditional_control_insts       586315                       # number of instructions that are conditional controls
system.cpu3.num_int_insts                     6824815                       # number of integer instructions
system.cpu3.num_fp_insts                         1778                       # number of float instructions
system.cpu3.num_int_register_reads           13509437                       # number of times the integer registers were read
system.cpu3.num_int_register_writes           5594394                       # number of times the integer registers were written
system.cpu3.num_fp_register_reads                2988                       # number of times the floating registers were read
system.cpu3.num_fp_register_writes               1416                       # number of times the floating registers were written
system.cpu3.num_cc_register_reads             4327602                       # number of times the CC registers were read
system.cpu3.num_cc_register_writes            2259334                       # number of times the CC registers were written
system.cpu3.num_mem_refs                      1510714                       # number of memory refs
system.cpu3.num_load_insts                     946401                       # Number of load instructions
system.cpu3.num_store_insts                    564313                       # Number of store instructions
system.cpu3.num_idle_cycles              5772509999.099313                       # Number of idle cycles
system.cpu3.num_busy_cycles              13589214.900687                       # Number of busy cycles
system.cpu3.not_idle_fraction                0.002349                       # Percentage of non-idle cycles
system.cpu3.idle_fraction                    0.997651                       # Percentage of idle cycles
system.cpu3.Branches                           809421                       # Number of branches fetched
system.cpu3.op_class::No_OpClass                90274      1.30%      1.30% # Class of executed instruction
system.cpu3.op_class::IntAlu                  5304845     76.35%     77.65% # Class of executed instruction
system.cpu3.op_class::IntMult                   10687      0.15%     77.80% # Class of executed instruction
system.cpu3.op_class::IntDiv                    30277      0.44%     78.24% # Class of executed instruction
system.cpu3.op_class::FloatAdd                   1344      0.02%     78.26% # Class of executed instruction
system.cpu3.op_class::FloatCmp                      0      0.00%     78.26% # Class of executed instruction
system.cpu3.op_class::FloatCvt                      0      0.00%     78.26% # Class of executed instruction
system.cpu3.op_class::FloatMult                     0      0.00%     78.26% # Class of executed instruction
system.cpu3.op_class::FloatDiv                      0      0.00%     78.26% # Class of executed instruction
system.cpu3.op_class::FloatSqrt                     0      0.00%     78.26% # Class of executed instruction
system.cpu3.op_class::SimdAdd                       0      0.00%     78.26% # Class of executed instruction
system.cpu3.op_class::SimdAddAcc                    0      0.00%     78.26% # Class of executed instruction
system.cpu3.op_class::SimdAlu                       0      0.00%     78.26% # Class of executed instruction
system.cpu3.op_class::SimdCmp                       0      0.00%     78.26% # Class of executed instruction
system.cpu3.op_class::SimdCvt                       0      0.00%     78.26% # Class of executed instruction
system.cpu3.op_class::SimdMisc                      0      0.00%     78.26% # Class of executed instruction
system.cpu3.op_class::SimdMult                      0      0.00%     78.26% # Class of executed instruction
system.cpu3.op_class::SimdMultAcc                   0      0.00%     78.26% # Class of executed instruction
system.cpu3.op_class::SimdShift                     0      0.00%     78.26% # Class of executed instruction
system.cpu3.op_class::SimdShiftAcc                  0      0.00%     78.26% # Class of executed instruction
system.cpu3.op_class::SimdSqrt                      0      0.00%     78.26% # Class of executed instruction
system.cpu3.op_class::SimdFloatAdd                  0      0.00%     78.26% # Class of executed instruction
system.cpu3.op_class::SimdFloatAlu                  0      0.00%     78.26% # Class of executed instruction
system.cpu3.op_class::SimdFloatCmp                  0      0.00%     78.26% # Class of executed instruction
system.cpu3.op_class::SimdFloatCvt                  0      0.00%     78.26% # Class of executed instruction
system.cpu3.op_class::SimdFloatDiv                  0      0.00%     78.26% # Class of executed instruction
system.cpu3.op_class::SimdFloatMisc                 0      0.00%     78.26% # Class of executed instruction
system.cpu3.op_class::SimdFloatMult                 0      0.00%     78.26% # Class of executed instruction
system.cpu3.op_class::SimdFloatMultAcc              0      0.00%     78.26% # Class of executed instruction
system.cpu3.op_class::SimdFloatSqrt                 0      0.00%     78.26% # Class of executed instruction
system.cpu3.op_class::MemRead                  946401     13.62%     91.88% # Class of executed instruction
system.cpu3.op_class::MemWrite                 564313      8.12%    100.00% # Class of executed instruction
system.cpu3.op_class::IprAccess                     0      0.00%    100.00% # Class of executed instruction
system.cpu3.op_class::InstPrefetch                  0      0.00%    100.00% # Class of executed instruction
system.cpu3.op_class::total                   6948141                       # Class of executed instruction
system.iobus.trans_dist::ReadReq                  863                       # Transaction distribution
system.iobus.trans_dist::ReadResp                 863                       # Transaction distribution
system.iobus.trans_dist::WriteReq                4524                       # Transaction distribution
system.iobus.trans_dist::WriteResp               4524                       # Transaction distribution
system.iobus.trans_dist::MessageReq               110                       # Transaction distribution
system.iobus.trans_dist::MessageResp              110                       # Transaction distribution
system.iobus.pkt_count_system.pc.south_bridge.io_apic.int_master::system.ruby.l1_cntrl0.sequencer.pio-slave-port           52                       # Packet count per connected master and slave (bytes)
system.iobus.pkt_count_system.pc.south_bridge.io_apic.int_master::system.ruby.l1_cntrl1.sequencer.pio-slave-port           50                       # Packet count per connected master and slave (bytes)
system.iobus.pkt_count_system.pc.south_bridge.io_apic.int_master::system.ruby.l1_cntrl2.sequencer.pio-slave-port           50                       # Packet count per connected master and slave (bytes)
system.iobus.pkt_count_system.pc.south_bridge.io_apic.int_master::system.ruby.l1_cntrl3.sequencer.pio-slave-port           50                       # Packet count per connected master and slave (bytes)
system.iobus.pkt_count_system.pc.south_bridge.io_apic.int_master::total          202                       # Packet count per connected master and slave (bytes)
system.iobus.pkt_count_system.ruby.l1_cntrl0.sequencer.mem-master-port::system.pc.south_bridge.ide.pio          980                       # Packet count per connected master and slave (bytes)
system.iobus.pkt_count_system.ruby.l1_cntrl0.sequencer.mem-master-port::system.pc.south_bridge.io_apic.pio            8                       # Packet count per connected master and slave (bytes)
system.iobus.pkt_count_system.ruby.l1_cntrl0.sequencer.mem-master-port::system.pc.com_1.pio            2                       # Packet count per connected master and slave (bytes)
system.iobus.pkt_count_system.ruby.l1_cntrl0.sequencer.mem-master-port::system.ruby.l1_cntrl0.sequencer.pio-slave-port         1514                       # Packet count per connected master and slave (bytes)
system.iobus.pkt_count_system.ruby.l1_cntrl0.sequencer.mem-master-port::system.ruby.l1_cntrl1.sequencer.pio-slave-port            2                       # Packet count per connected master and slave (bytes)
system.iobus.pkt_count_system.ruby.l1_cntrl0.sequencer.mem-master-port::total         2506                       # Packet count per connected master and slave (bytes)
system.iobus.pkt_count_system.ruby.l1_cntrl1.sequencer.mem-master-port::system.pc.south_bridge.ide.pio         1592                       # Packet count per connected master and slave (bytes)
system.iobus.pkt_count_system.ruby.l1_cntrl1.sequencer.mem-master-port::system.ruby.l1_cntrl0.sequencer.pio-slave-port            6                       # Packet count per connected master and slave (bytes)
system.iobus.pkt_count_system.ruby.l1_cntrl1.sequencer.mem-master-port::system.ruby.l1_cntrl1.sequencer.pio-slave-port         1526                       # Packet count per connected master and slave (bytes)
system.iobus.pkt_count_system.ruby.l1_cntrl1.sequencer.mem-master-port::system.ruby.l1_cntrl2.sequencer.pio-slave-port            2                       # Packet count per connected master and slave (bytes)
system.iobus.pkt_count_system.ruby.l1_cntrl1.sequencer.mem-master-port::total         3126                       # Packet count per connected master and slave (bytes)
system.iobus.pkt_count_system.ruby.l1_cntrl2.sequencer.mem-master-port::system.pc.south_bridge.ide.pio          900                       # Packet count per connected master and slave (bytes)
system.iobus.pkt_count_system.ruby.l1_cntrl2.sequencer.mem-master-port::system.pc.south_bridge.io_apic.pio            6                       # Packet count per connected master and slave (bytes)
system.iobus.pkt_count_system.ruby.l1_cntrl2.sequencer.mem-master-port::system.pc.com_1.pio          174                       # Packet count per connected master and slave (bytes)
system.iobus.pkt_count_system.ruby.l1_cntrl2.sequencer.mem-master-port::system.ruby.l1_cntrl2.sequencer.pio-slave-port         1510                       # Packet count per connected master and slave (bytes)
system.iobus.pkt_count_system.ruby.l1_cntrl2.sequencer.mem-master-port::system.ruby.l1_cntrl3.sequencer.pio-slave-port            2                       # Packet count per connected master and slave (bytes)
system.iobus.pkt_count_system.ruby.l1_cntrl2.sequencer.mem-master-port::total         2592                       # Packet count per connected master and slave (bytes)
system.iobus.pkt_count_system.ruby.l1_cntrl3.sequencer.mem-master-port::system.pc.south_bridge.ide.pio         1036                       # Packet count per connected master and slave (bytes)
system.iobus.pkt_count_system.ruby.l1_cntrl3.sequencer.mem-master-port::system.pc.south_bridge.io_apic.pio            8                       # Packet count per connected master and slave (bytes)
system.iobus.pkt_count_system.ruby.l1_cntrl3.sequencer.mem-master-port::system.ruby.l1_cntrl0.sequencer.pio-slave-port            2                       # Packet count per connected master and slave (bytes)
system.iobus.pkt_count_system.ruby.l1_cntrl3.sequencer.mem-master-port::system.ruby.l1_cntrl1.sequencer.pio-slave-port            2                       # Packet count per connected master and slave (bytes)
system.iobus.pkt_count_system.ruby.l1_cntrl3.sequencer.mem-master-port::system.ruby.l1_cntrl2.sequencer.pio-slave-port            2                       # Packet count per connected master and slave (bytes)
system.iobus.pkt_count_system.ruby.l1_cntrl3.sequencer.mem-master-port::system.ruby.l1_cntrl3.sequencer.pio-slave-port         1518                       # Packet count per connected master and slave (bytes)
system.iobus.pkt_count_system.ruby.l1_cntrl3.sequencer.mem-master-port::total         2568                       # Packet count per connected master and slave (bytes)
system.iobus.pkt_count::total                   10994                       # Packet count per connected master and slave (bytes)
system.iobus.pkt_size_system.pc.south_bridge.io_apic.int_master::system.ruby.l1_cntrl0.sequencer.pio-slave-port          104                       # Cumulative packet size per connected master and slave (bytes)
system.iobus.pkt_size_system.pc.south_bridge.io_apic.int_master::system.ruby.l1_cntrl1.sequencer.pio-slave-port          100                       # Cumulative packet size per connected master and slave (bytes)
system.iobus.pkt_size_system.pc.south_bridge.io_apic.int_master::system.ruby.l1_cntrl2.sequencer.pio-slave-port          100                       # Cumulative packet size per connected master and slave (bytes)
system.iobus.pkt_size_system.pc.south_bridge.io_apic.int_master::system.ruby.l1_cntrl3.sequencer.pio-slave-port          100                       # Cumulative packet size per connected master and slave (bytes)
system.iobus.pkt_size_system.pc.south_bridge.io_apic.int_master::total          404                       # Cumulative packet size per connected master and slave (bytes)
system.iobus.pkt_size_system.ruby.l1_cntrl0.sequencer.mem-master-port::system.pc.south_bridge.ide.pio          550                       # Cumulative packet size per connected master and slave (bytes)
system.iobus.pkt_size_system.ruby.l1_cntrl0.sequencer.mem-master-port::system.pc.south_bridge.io_apic.pio           16                       # Cumulative packet size per connected master and slave (bytes)
system.iobus.pkt_size_system.ruby.l1_cntrl0.sequencer.mem-master-port::system.pc.com_1.pio            1                       # Cumulative packet size per connected master and slave (bytes)
system.iobus.pkt_size_system.ruby.l1_cntrl0.sequencer.mem-master-port::system.ruby.l1_cntrl0.sequencer.pio-slave-port         3028                       # Cumulative packet size per connected master and slave (bytes)
system.iobus.pkt_size_system.ruby.l1_cntrl0.sequencer.mem-master-port::system.ruby.l1_cntrl1.sequencer.pio-slave-port            4                       # Cumulative packet size per connected master and slave (bytes)
system.iobus.pkt_size_system.ruby.l1_cntrl0.sequencer.mem-master-port::total         3599                       # Cumulative packet size per connected master and slave (bytes)
system.iobus.pkt_size_system.ruby.l1_cntrl1.sequencer.mem-master-port::system.pc.south_bridge.ide.pio          910                       # Cumulative packet size per connected master and slave (bytes)
system.iobus.pkt_size_system.ruby.l1_cntrl1.sequencer.mem-master-port::system.ruby.l1_cntrl0.sequencer.pio-slave-port           12                       # Cumulative packet size per connected master and slave (bytes)
system.iobus.pkt_size_system.ruby.l1_cntrl1.sequencer.mem-master-port::system.ruby.l1_cntrl1.sequencer.pio-slave-port         3052                       # Cumulative packet size per connected master and slave (bytes)
system.iobus.pkt_size_system.ruby.l1_cntrl1.sequencer.mem-master-port::system.ruby.l1_cntrl2.sequencer.pio-slave-port            4                       # Cumulative packet size per connected master and slave (bytes)
system.iobus.pkt_size_system.ruby.l1_cntrl1.sequencer.mem-master-port::total         3978                       # Cumulative packet size per connected master and slave (bytes)
system.iobus.pkt_size_system.ruby.l1_cntrl2.sequencer.mem-master-port::system.pc.south_bridge.ide.pio          504                       # Cumulative packet size per connected master and slave (bytes)
system.iobus.pkt_size_system.ruby.l1_cntrl2.sequencer.mem-master-port::system.pc.south_bridge.io_apic.pio           12                       # Cumulative packet size per connected master and slave (bytes)
system.iobus.pkt_size_system.ruby.l1_cntrl2.sequencer.mem-master-port::system.pc.com_1.pio           87                       # Cumulative packet size per connected master and slave (bytes)
system.iobus.pkt_size_system.ruby.l1_cntrl2.sequencer.mem-master-port::system.ruby.l1_cntrl2.sequencer.pio-slave-port         3020                       # Cumulative packet size per connected master and slave (bytes)
system.iobus.pkt_size_system.ruby.l1_cntrl2.sequencer.mem-master-port::system.ruby.l1_cntrl3.sequencer.pio-slave-port            4                       # Cumulative packet size per connected master and slave (bytes)
system.iobus.pkt_size_system.ruby.l1_cntrl2.sequencer.mem-master-port::total         3627                       # Cumulative packet size per connected master and slave (bytes)
system.iobus.pkt_size_system.ruby.l1_cntrl3.sequencer.mem-master-port::system.pc.south_bridge.ide.pio          584                       # Cumulative packet size per connected master and slave (bytes)
system.iobus.pkt_size_system.ruby.l1_cntrl3.sequencer.mem-master-port::system.pc.south_bridge.io_apic.pio           16                       # Cumulative packet size per connected master and slave (bytes)
system.iobus.pkt_size_system.ruby.l1_cntrl3.sequencer.mem-master-port::system.ruby.l1_cntrl0.sequencer.pio-slave-port            4                       # Cumulative packet size per connected master and slave (bytes)
system.iobus.pkt_size_system.ruby.l1_cntrl3.sequencer.mem-master-port::system.ruby.l1_cntrl1.sequencer.pio-slave-port            4                       # Cumulative packet size per connected master and slave (bytes)
system.iobus.pkt_size_system.ruby.l1_cntrl3.sequencer.mem-master-port::system.ruby.l1_cntrl2.sequencer.pio-slave-port            4                       # Cumulative packet size per connected master and slave (bytes)
system.iobus.pkt_size_system.ruby.l1_cntrl3.sequencer.mem-master-port::system.ruby.l1_cntrl3.sequencer.pio-slave-port         3036                       # Cumulative packet size per connected master and slave (bytes)
system.iobus.pkt_size_system.ruby.l1_cntrl3.sequencer.mem-master-port::total         3648                       # Cumulative packet size per connected master and slave (bytes)
system.iobus.pkt_size::total                    15256                       # Cumulative packet size per connected master and slave (bytes)
system.iobus.reqLayer2.occupancy              3874500                       # Layer occupancy (ticks)
system.iobus.reqLayer2.utilization                0.0                       # Layer utilization (%)
system.iobus.reqLayer8.occupancy                19997                       # Layer occupancy (ticks)
system.iobus.reqLayer8.utilization                0.0                       # Layer utilization (%)
system.iobus.reqLayer12.occupancy              113000                       # Layer occupancy (ticks)
system.iobus.reqLayer12.utilization               0.0                       # Layer utilization (%)
system.iobus.reqLayer17.occupancy             1959974                       # Layer occupancy (ticks)
system.iobus.reqLayer17.utilization               0.0                       # Layer utilization (%)
system.iobus.reqLayer18.occupancy             2148769                       # Layer occupancy (ticks)
system.iobus.reqLayer18.utilization               0.0                       # Layer utilization (%)
system.iobus.reqLayer19.occupancy             1950976                       # Layer occupancy (ticks)
system.iobus.reqLayer19.utilization               0.0                       # Layer utilization (%)
system.iobus.reqLayer20.occupancy             1958474                       # Layer occupancy (ticks)
system.iobus.reqLayer20.utilization               0.0                       # Layer utilization (%)
system.iobus.respLayer0.occupancy              173902                       # Layer occupancy (ticks)
system.iobus.respLayer0.utilization               0.0                       # Layer utilization (%)
system.iobus.respLayer2.occupancy             1814500                       # Layer occupancy (ticks)
system.iobus.respLayer2.utilization               0.0                       # Layer utilization (%)
system.iobus.respLayer4.occupancy             2201000                       # Layer occupancy (ticks)
system.iobus.respLayer4.utilization               0.0                       # Layer utilization (%)
system.iobus.respLayer6.occupancy             1908500                       # Layer occupancy (ticks)
system.iobus.respLayer6.utilization               0.0                       # Layer utilization (%)
system.iobus.respLayer8.occupancy             1852500                       # Layer occupancy (ticks)
system.iobus.respLayer8.utilization               0.0                       # Layer utilization (%)
system.pc.south_bridge.ide.disks.dma_read_full_pages         1522                       # Number of full page size DMA reads (not PRD).
system.pc.south_bridge.ide.disks.dma_read_bytes      6234112                       # Number of bytes transfered via DMA reads (not PRD).
system.pc.south_bridge.ide.disks.dma_read_txs         1522                       # Number of DMA read transactions (not PRD).
system.pc.south_bridge.ide.disks.dma_write_full_pages           45                       # Number of full page size DMA writes.
system.pc.south_bridge.ide.disks.dma_write_bytes       184320                       # Number of bytes transfered via DMA writes.
system.pc.south_bridge.ide.disks.dma_write_txs           45                       # Number of DMA write transactions.
system.ruby.clk_domain.clock                      500                       # Clock period in ticks
system.ruby.outstanding_req_hist_seqr::bucket_size            1                      
system.ruby.outstanding_req_hist_seqr::max_bucket            9                      
system.ruby.outstanding_req_hist_seqr::samples   2881459974                      
system.ruby.outstanding_req_hist_seqr::mean     1.000000                      
system.ruby.outstanding_req_hist_seqr::gmean     1.000000                      
system.ruby.outstanding_req_hist_seqr::stdev     0.000259                      
system.ruby.outstanding_req_hist_seqr    |           0      0.00%      0.00% |  2881459780    100.00%    100.00% |         194      0.00%    100.00% |           0      0.00%    100.00% |           0      0.00%    100.00% |           0      0.00%    100.00% |           0      0.00%    100.00% |           0      0.00%    100.00% |           0      0.00%    100.00% |           0      0.00%    100.00%
system.ruby.outstanding_req_hist_seqr::total   2881459974                      
system.ruby.latency_hist_seqr::bucket_size          128                      
system.ruby.latency_hist_seqr::max_bucket         1279                      
system.ruby.latency_hist_seqr::samples     2881459974                      
system.ruby.latency_hist_seqr::mean          1.019292                      
system.ruby.latency_hist_seqr::gmean         1.004089                      
system.ruby.latency_hist_seqr::stdev         0.707150                      
system.ruby.latency_hist_seqr            |  2881455282    100.00%    100.00% |        3692      0.00%    100.00% |         234      0.00%    100.00% |         245      0.00%    100.00% |         423      0.00%    100.00% |          98      0.00%    100.00% |           0      0.00%    100.00% |           0      0.00%    100.00% |           0      0.00%    100.00% |           0      0.00%    100.00%
system.ruby.latency_hist_seqr::total       2881459974                      
system.ruby.hit_latency_hist_seqr::bucket_size            2                      
system.ruby.hit_latency_hist_seqr::max_bucket           19                      
system.ruby.hit_latency_hist_seqr::samples   2881328529                      
system.ruby.hit_latency_hist_seqr::mean      1.016256                      
system.ruby.hit_latency_hist_seqr::gmean     1.003906                      
system.ruby.hit_latency_hist_seqr::stdev     0.402860                      
system.ruby.hit_latency_hist_seqr        |  2876644635     99.84%     99.84% |           0      0.00%     99.84% |           0      0.00%     99.84% |           0      0.00%     99.84% |           0      0.00%     99.84% |     4683894      0.16%    100.00% |           0      0.00%    100.00% |           0      0.00%    100.00% |           0      0.00%    100.00% |           0      0.00%    100.00%
system.ruby.hit_latency_hist_seqr::total   2881328529                      
system.ruby.miss_latency_hist_seqr::bucket_size          128                      
system.ruby.miss_latency_hist_seqr::max_bucket         1279                      
system.ruby.miss_latency_hist_seqr::samples       131445                      
system.ruby.miss_latency_hist_seqr::mean    67.567903                      
system.ruby.miss_latency_hist_seqr::gmean    55.078091                      
system.ruby.miss_latency_hist_seqr::stdev    54.548617                      
[...]
system.ruby.L1Cache_Controller.O.Trigger_L2_to_L1D::total         7365                      
system.ruby.L1Cache_Controller.O.Trigger_L2_to_L1I |        4495      9.82%      9.82% |       18516     40.44%     50.25% |       18146     39.63%     89.88% |        4634     10.12%    100.00%
system.ruby.L1Cache_Controller.O.Trigger_L2_to_L1I::total        45791                      
system.ruby.L1Cache_Controller.O.Other_GETX |        4262     24.17%     24.17% |        1009      5.72%     29.90% |        5195     29.47%     59.36% |        7164     40.64%    100.00%
system.ruby.L1Cache_Controller.O.Other_GETX::total        17630                      
system.ruby.L1Cache_Controller.O.Other_GETS |        4220     19.13%     19.13% |        3514     15.93%     35.06% |        4936     22.38%     57.44% |        9389     42.56%    100.00%
system.ruby.L1Cache_Controller.O.Other_GETS::total        22059                      
system.ruby.L1Cache_Controller.M.Load    |      136116      0.05%      0.05% |   270827416     99.75%     99.80% |      141885      0.05%     99.85% |      411320      0.15%    100.00%
system.ruby.L1Cache_Controller.M.Load::total    271516737                      
system.ruby.L1Cache_Controller.M.Ifetch  |      477084      0.00%      0.00% |18446744071613132800    100.00%    100.00% |      221570      0.00%    100.00% |     7353710      0.00%    100.00%
system.ruby.L1Cache_Controller.M.Ifetch::total 18446744071621185536                      
system.ruby.L1Cache_Controller.M.Store   |        4751     14.63%     14.63% |       11125     34.26%     48.89% |        6781     20.88%     69.77% |        9817     30.23%    100.00%
system.ruby.L1Cache_Controller.M.Store::total        32474                      
system.ruby.L1Cache_Controller.M.L2_Replacement |          88      0.29%      0.29% |       14518     48.14%     48.43% |         177      0.59%     49.02% |       15373     50.98%    100.00%
system.ruby.L1Cache_Controller.M.L2_Replacement::total        30156                      
system.ruby.L1Cache_Controller.M.L1_to_L2 |       14004      0.33%      0.33% |     4244478     98.72%     99.05% |        5712      0.13%     99.18% |       35309      0.82%    100.00%
system.ruby.L1Cache_Controller.M.L1_to_L2::total      4299503                      
system.ruby.L1Cache_Controller.M.Trigger_L2_to_L1D |        2058      0.06%      0.06% |     3734347     99.82%     99.87% |        2032      0.05%     99.93% |        2673      0.07%    100.00%
system.ruby.L1Cache_Controller.M.Trigger_L2_to_L1D::total      3741110                      
system.ruby.L1Cache_Controller.M.Trigger_L2_to_L1I |        6637      1.36%      1.36% |      477578     98.19%     99.56% |         524      0.11%     99.66% |        1630      0.34%    100.00%
system.ruby.L1Cache_Controller.M.Trigger_L2_to_L1I::total       486369                      
system.ruby.L1Cache_Controller.M.Other_GETX |         474     18.81%     18.81% |         167      6.63%     25.44% |         987     39.17%     64.60% |         892     35.40%    100.00%
system.ruby.L1Cache_Controller.M.Other_GETX::total         2520                      
system.ruby.L1Cache_Controller.M.Other_GETS |        6478     21.03%     21.03% |        9615     31.21%     52.24% |        5378     17.46%     69.70% |        9335     30.30%    100.00%
system.ruby.L1Cache_Controller.M.Other_GETS::total        30806                      
system.ruby.L1Cache_Controller.M.Merged_GETS |          17     14.66%     14.66% |          76     65.52%     80.17% |          20     17.24%     97.41% |           3      2.59%    100.00%
system.ruby.L1Cache_Controller.M.Merged_GETS::total          116                      
system.ruby.L1Cache_Controller.MM.Load   |      796377      0.38%      0.38% |   204000975     98.10%     98.48% |      880751      0.42%     98.91% |     2272610      1.09%    100.00%
system.ruby.L1Cache_Controller.MM.Load::total    207950713                      
system.ruby.L1Cache_Controller.MM.Store  |      835466      0.48%      0.48% |   168617524     97.56%     98.04% |      980572      0.57%     98.61% |     2399722      1.39%    100.00%
system.ruby.L1Cache_Controller.MM.Store::total    172833284                      
system.ruby.L1Cache_Controller.MM.L2_Replacement |         165      1.03%      1.03% |        6740     41.94%     42.97% |         594      3.70%     46.66% |        8572     53.34%    100.00%
system.ruby.L1Cache_Controller.MM.L2_Replacement::total        16071                      
system.ruby.L1Cache_Controller.MM.L1_to_L2 |       14207      4.74%      4.74% |      230375     76.83%     81.57% |       20497      6.84%     88.41% |       34753     11.59%    100.00%
system.ruby.L1Cache_Controller.MM.L1_to_L2::total       299832                      
system.ruby.L1Cache_Controller.MM.Trigger_L2_to_L1D |        5758      2.38%      2.38% |      213221     88.13%     90.51% |        7440      3.08%     93.59% |       15518      6.41%    100.00%
system.ruby.L1Cache_Controller.MM.Trigger_L2_to_L1D::total       241937                      
system.ruby.L1Cache_Controller.MM.Other_GETX |        1875     12.21%     12.21% |        5111     33.28%     45.49% |        1937     12.61%     58.10% |        6435     41.90%    100.00%
system.ruby.L1Cache_Controller.MM.Other_GETX::total        15358                      
system.ruby.L1Cache_Controller.MM.Other_GETS |        9492     25.14%     25.14% |       11215     29.71%     54.85% |        6111     16.19%     71.04% |       10932     28.96%    100.00%
system.ruby.L1Cache_Controller.MM.Other_GETS::total        37750                      
system.ruby.L1Cache_Controller.MM.Merged_GETS |         259     32.33%     32.33% |         278     34.71%     67.04% |         228     28.46%     95.51% |          36      4.49%    100.00%
system.ruby.L1Cache_Controller.MM.Merged_GETS::total          801                      
system.ruby.L1Cache_Controller.SR.Load   |        1866      2.25%      2.25% |       71295     85.93%     88.18% |        5031      6.06%     94.25% |        4774      5.75%    100.00%
system.ruby.L1Cache_Controller.SR.Load::total        82966                      
system.ruby.L1Cache_Controller.SR.Ifetch |       47147     26.77%     26.77% |       48172     27.35%     54.12% |       33507     19.03%     73.15% |       47293     26.85%    100.00%
system.ruby.L1Cache_Controller.SR.Ifetch::total       176119                      
system.ruby.L1Cache_Controller.SR.Store  |          38      9.13%      9.13% |          46     11.06%     20.19% |         123     29.57%     49.76% |         209     50.24%    100.00%
system.ruby.L1Cache_Controller.SR.Store::total          416                      
system.ruby.L1Cache_Controller.OR.Load   |        1064     14.64%     14.64% |        4871     67.01%     81.65% |         481      6.62%     88.27% |         853     11.73%    100.00%
system.ruby.L1Cache_Controller.OR.Load::total         7269                      
system.ruby.L1Cache_Controller.OR.Ifetch |        4495      9.82%      9.82% |       18516     40.44%     50.25% |       18146     39.63%     89.88% |        4634     10.12%    100.00%
system.ruby.L1Cache_Controller.OR.Ifetch::total        45791                      
system.ruby.L1Cache_Controller.OR.Store  |          64     66.67%     66.67% |           6      6.25%     72.92% |           4      4.17%     77.08% |          22     22.92%    100.00%
system.ruby.L1Cache_Controller.OR.Store::total           96                      
system.ruby.L1Cache_Controller.MR.Load   |        1649      0.04%      0.04% |     3734195     99.88%     99.92% |        1492      0.04%     99.96% |        1531      0.04%    100.00%
system.ruby.L1Cache_Controller.MR.Load::total      3738867                      
system.ruby.L1Cache_Controller.MR.Ifetch |        6637      1.36%      1.36% |      477578     98.19%     99.56% |         524      0.11%     99.66% |        1630      0.34%    100.00%
system.ruby.L1Cache_Controller.MR.Ifetch::total       486369                      
system.ruby.L1Cache_Controller.MR.Store  |         409     18.23%     18.23% |         152      6.78%     25.01% |         540     24.07%     49.09% |        1142     50.91%    100.00%
system.ruby.L1Cache_Controller.MR.Store::total         2243                      
system.ruby.L1Cache_Controller.MMR.Load  |        2463      2.27%      2.27% |       91675     84.33%     86.59% |        4508      4.15%     90.74% |       10066      9.26%    100.00%
system.ruby.L1Cache_Controller.MMR.Load::total       108712                      
system.ruby.L1Cache_Controller.MMR.Store |        3295      2.47%      2.47% |      121546     91.23%     93.71% |        2932      2.20%     95.91% |        5452      4.09%    100.00%
system.ruby.L1Cache_Controller.MMR.Store::total       133225                      
system.ruby.L1Cache_Controller.IM.Ack    |       18850     21.57%     21.57% |       21154     24.21%     45.78% |       13357     15.29%     61.07% |       34022     38.93%    100.00%
system.ruby.L1Cache_Controller.IM.Ack::total        87383                      
system.ruby.L1Cache_Controller.IM.Data   |        2704     43.20%     43.20% |         695     11.10%     54.31% |        1604     25.63%     79.93% |        1256     20.07%    100.00%
system.ruby.L1Cache_Controller.IM.Data::total         6259                      
system.ruby.L1Cache_Controller.IM.Exclusive_Data |        7392     19.68%     19.68% |        8678     23.11%     42.79% |        7713     20.54%     63.33% |       13771     36.67%    100.00%
system.ruby.L1Cache_Controller.IM.Exclusive_Data::total        37554                      
system.ruby.L1Cache_Controller.SM.Ack    |        6229     45.32%     45.32% |        1713     12.46%     57.79% |        2111     15.36%     73.15% |        3690     26.85%    100.00%
system.ruby.L1Cache_Controller.SM.Ack::total        13743                      
system.ruby.L1Cache_Controller.SM.Data   |        4111     35.85%     35.85% |        1942     16.94%     52.79% |        2619     22.84%     75.63% |        2794     24.37%    100.00%
system.ruby.L1Cache_Controller.SM.Data::total        11466                      
system.ruby.L1Cache_Controller.OM.Ack    |         543     35.63%     35.63% |         351     23.03%     58.66% |         375     24.61%     83.27% |         255     16.73%    100.00%
system.ruby.L1Cache_Controller.OM.Ack::total         1524                      
system.ruby.L1Cache_Controller.OM.All_acks_no_sharers |         181     35.63%     35.63% |         117     23.03%     58.66% |         125     24.61%     83.27% |          85     16.73%    100.00%
system.ruby.L1Cache_Controller.OM.All_acks_no_sharers::total          508                      
system.ruby.L1Cache_Controller.ISM.Ack   |        3178     21.88%     21.88% |        3037     20.91%     42.79% |        5617     38.67%     81.46% |        2693     18.54%    100.00%
system.ruby.L1Cache_Controller.ISM.Ack::total        14525                      
system.ruby.L1Cache_Controller.ISM.All_acks_no_sharers |        6815     38.45%     38.45% |        2637     14.88%     53.33% |        4223     23.83%     77.15% |        4050     22.85%    100.00%
system.ruby.L1Cache_Controller.ISM.All_acks_no_sharers::total        17725                      
system.ruby.L1Cache_Controller.M_W.Load  |          60     17.91%     17.91% |          83     24.78%     42.69% |         100     29.85%     72.54% |          92     27.46%    100.00%
system.ruby.L1Cache_Controller.M_W.Load::total          335                      
system.ruby.L1Cache_Controller.M_W.Store |          15     13.76%     13.76% |           2      1.83%     15.60% |           5      4.59%     20.18% |          87     79.82%    100.00%
system.ruby.L1Cache_Controller.M_W.Store::total          109                      
system.ruby.L1Cache_Controller.M_W.Ack   |        7039     19.36%     19.36% |        3936     10.83%     30.19% |        8045     22.13%     52.32% |       17332     47.68%    100.00%
system.ruby.L1Cache_Controller.M_W.Ack::total        36352                      
system.ruby.L1Cache_Controller.M_W.All_acks_no_sharers |       14128     11.31%     11.31% |       45025     36.06%     47.37% |       16009     12.82%     60.19% |       49713     39.81%    100.00%
system.ruby.L1Cache_Controller.M_W.All_acks_no_sharers::total       124875                      
system.ruby.L1Cache_Controller.MM_W.Load |           0      0.00%      0.00% |           0      0.00%      0.00% |           0      0.00%      0.00% |           1    100.00%    100.00%
system.ruby.L1Cache_Controller.MM_W.Load::total            1                      
system.ruby.L1Cache_Controller.MM_W.Store |        1310     19.98%     19.98% |        1015     15.48%     35.45% |        1910     29.12%     64.58% |        2323     35.42%    100.00%
system.ruby.L1Cache_Controller.MM_W.Store::total         6558                      
system.ruby.L1Cache_Controller.MM_W.Ack  |        3172     21.18%     21.18% |        2405     16.06%     37.23% |        4816     32.15%     69.38% |        4586     30.62%    100.00%
system.ruby.L1Cache_Controller.MM_W.Ack::total        14979                      
system.ruby.L1Cache_Controller.MM_W.All_acks_no_sharers |        7407     19.67%     19.67% |        8680     23.05%     42.71% |        7718     20.49%     63.21% |       13858     36.79%    100.00%
system.ruby.L1Cache_Controller.MM_W.All_acks_no_sharers::total        37663                      
system.ruby.L1Cache_Controller.IS.Other_GETS |           0      0.00%      0.00% |           0      0.00%      0.00% |           0      0.00%      0.00% |           1    100.00%    100.00%
system.ruby.L1Cache_Controller.IS.Other_GETS::total            1                      
system.ruby.L1Cache_Controller.IS.Ack    |       38134     10.61%     10.61% |      141797     39.44%     50.04% |       46214     12.85%     62.89% |      133422     37.11%    100.00%
system.ruby.L1Cache_Controller.IS.Ack::total       359567                      
system.ruby.L1Cache_Controller.IS.Shared_Ack |       11594     34.49%     34.49% |        6057     18.02%     52.50% |        9651     28.71%     81.21% |        6318     18.79%    100.00%
system.ruby.L1Cache_Controller.IS.Shared_Ack::total        33620                      
system.ruby.L1Cache_Controller.IS.Data   |        3299     27.88%     27.88% |        3286     27.77%     55.66% |        3614     30.55%     86.21% |        1632     13.79%    100.00%
system.ruby.L1Cache_Controller.IS.Data::total        11831                      
system.ruby.L1Cache_Controller.IS.Shared_Data |       11795     21.93%     21.93% |       10134     18.84%     40.77% |       13526     25.15%     65.92% |       18328     34.08%    100.00%
system.ruby.L1Cache_Controller.IS.Shared_Data::total        53783                      
system.ruby.L1Cache_Controller.IS.Exclusive_Data |       14143     11.32%     11.32% |       45027     36.03%     47.34% |       16014     12.81%     60.15% |       49800     39.85%    100.00%
system.ruby.L1Cache_Controller.IS.Exclusive_Data::total       124984                      
system.ruby.L1Cache_Controller.SS.Load   |          14      5.71%      5.71% |          37     15.10%     20.82% |         143     58.37%     79.18% |          51     20.82%    100.00%
system.ruby.L1Cache_Controller.SS.Load::total          245                      
system.ruby.L1Cache_Controller.SS.Ifetch |        1239     19.55%     19.55% |        1120     17.67%     37.22% |        1982     31.27%     68.49% |        1997     31.51%    100.00%
system.ruby.L1Cache_Controller.SS.Ifetch::total         6338                      
system.ruby.L1Cache_Controller.SS.Store  |           1      2.38%      2.38% |          34     80.95%     83.33% |           4      9.52%     92.86% |           3      7.14%    100.00%
system.ruby.L1Cache_Controller.SS.Store::total           42                      
system.ruby.L1Cache_Controller.SS.Ack    |        7214     19.20%     19.20% |        6561     17.46%     36.65% |        8774     23.35%     60.00% |       15033     40.00%    100.00%
system.ruby.L1Cache_Controller.SS.Ack::total        37582                      
system.ruby.L1Cache_Controller.SS.Shared_Ack |        2844     24.04%     24.04% |        2254     19.05%     43.09% |        3737     31.58%     74.67% |        2997     25.33%    100.00%
system.ruby.L1Cache_Controller.SS.Shared_Ack::total        11832                      
system.ruby.L1Cache_Controller.SS.All_acks |       14939     22.86%     22.86% |       13406     20.52%     43.38% |       17060     26.11%     69.49% |       19932     30.51%    100.00%
system.ruby.L1Cache_Controller.SS.All_acks::total        65337                      
system.ruby.L1Cache_Controller.SS.All_acks_no_sharers |         155     55.96%     55.96% |          14      5.05%     61.01% |          80     28.88%     89.89% |          28     10.11%    100.00%
system.ruby.L1Cache_Controller.SS.All_acks_no_sharers::total          277                      
system.ruby.L1Cache_Controller.OI.Load   |           0      0.00%      0.00% |           6     75.00%     75.00% |           0      0.00%     75.00% |           2     25.00%    100.00%
system.ruby.L1Cache_Controller.OI.Load::total            8                      
system.ruby.L1Cache_Controller.OI.Ifetch |           0      0.00%      0.00% |           3     75.00%     75.00% |           0      0.00%     75.00% |           1     25.00%    100.00%
system.ruby.L1Cache_Controller.OI.Ifetch::total            4                      
system.ruby.L1Cache_Controller.OI.Writeback_Ack |         130      1.91%      1.91% |        4788     70.41%     72.32% |          64      0.94%     73.26% |        1818     26.74%    100.00%
system.ruby.L1Cache_Controller.OI.Writeback_Ack::total         6800                      
system.ruby.L1Cache_Controller.MI.Load   |           0      0.00%      0.00% |           5     71.43%     71.43% |           0      0.00%     71.43% |           2     28.57%    100.00%
system.ruby.L1Cache_Controller.MI.Load::total            7                      
system.ruby.L1Cache_Controller.MI.Store  |           1     25.00%     25.00% |           2     50.00%     75.00% |           0      0.00%     75.00% |           1     25.00%    100.00%
system.ruby.L1Cache_Controller.MI.Store::total            4                      
system.ruby.L1Cache_Controller.MI.Writeback_Ack |         253      0.55%      0.55% |       21258     45.99%     46.53% |         771      1.67%     48.20% |       23945     51.80%    100.00%
system.ruby.L1Cache_Controller.MI.Writeback_Ack::total        46227                      
system.ruby.L1Cache_Controller.ST.Complete_L2_to_L1 |       49051     18.90%     18.90% |      119513     46.05%     64.96% |       38661     14.90%     79.86% |       52276     20.14%    100.00%
system.ruby.L1Cache_Controller.ST.Complete_L2_to_L1::total       259501                      
system.ruby.L1Cache_Controller.OT.Complete_L2_to_L1 |        5623     10.58%     10.58% |       23393     44.01%     54.59% |       18631     35.05%     89.64% |        5509     10.36%    100.00%
system.ruby.L1Cache_Controller.OT.Complete_L2_to_L1::total        53156                      
system.ruby.L1Cache_Controller.MT.Complete_L2_to_L1 |        8695      0.21%      0.21% |     4211925     99.63%     99.84% |        2556      0.06%     99.90% |        4303      0.10%    100.00%
system.ruby.L1Cache_Controller.MT.Complete_L2_to_L1::total      4227479                      
system.ruby.L1Cache_Controller.MMT.Complete_L2_to_L1 |        5758      2.38%      2.38% |      213221     88.13%     90.51% |        7440      3.08%     93.59% |       15518      6.41%    100.00%
system.ruby.L1Cache_Controller.MMT.Complete_L2_to_L1::total       241937                      

---------- End Simulation Statistics   ----------
