Couldn't import dot_parser, loading of dot files will not be possible.
Redirecting stdout to /root/anthony/lelec2990-sim2/splash2x.raytrace/X86_MOESI_hammer/l1d_assoc/8way/stdout.txt
Redirecting stderr to /root/anthony/lelec2990-sim2/splash2x.raytrace/X86_MOESI_hammer/l1d_assoc/8way/stderr.txt
gem5 Simulator System.  http://gem5.org
gem5 is copyrighted software; use the --copyright option for details.

gem5 compiled Jun  1 2016 13:02:59
gem5 started Jun  4 2016 06:13:54
gem5 executing on khangar.info.ucl.ac.be, pid 27661
command line: /root/anthony/gem5/build/X86_MOESI_hammer/gem5.opt --outdir=/root/anthony/lelec2990-sim2/splash2x.raytrace/X86_MOESI_hammer/l1d_assoc/8way -e --stderr-file=/root/anthony/lelec2990-sim2/splash2x.raytrace/X86_MOESI_hammer/l1d_assoc/8way/stderr.txt -r --stdout-file=/root/anthony/lelec2990-sim2/splash2x.raytrace/X86_MOESI_hammer/l1d_assoc/8way/stdout.txt /root/anthony/gem5/configs/example/fs.py --mem-size 1GB --script /root/anthony/lelec2990-sim2/my_sim_script --num-cpus 4 --ruby -r 1 --restore-with-cpu timing --l1d_assoc 8

Global frequency set at 1000000000000 ticks per second
info: kernel located at: /root/anthony/debian/binaries/vmlinux
      0: rtc: Real-time clock set to Sun Jan  1 00:00:00 2012
**** REAL SIMULATION ****
info: Entering event queue @ 51862399823500.  Starting simulation...
Exiting @ tick 54788437912501 because m5_exit instruction encountered
