
---------- Begin Simulation Statistics ----------
sim_seconds                                  3.258813                       # Number of seconds simulated
sim_ticks                                3258812803000                       # Number of ticks simulated
final_tick                               55125376420501                       # Number of ticks from beginning of simulation (restored from checkpoints and never reset)
sim_freq                                 1000000000000                       # Frequency of simulated ticks
host_inst_rate                                 117884                       # Simulator instruction rate (inst/s)
host_op_rate                                   197601                       # Simulator op (including micro ops) rate (op/s)
host_tick_rate                              250391933                       # Simulator tick rate (ticks/s)
host_mem_usage                                1848196                       # Number of bytes of host memory used
host_seconds                                 13014.85                       # Real time elapsed on the host
sim_insts                                  1534239398                       # Number of instructions simulated
sim_ops                                    2571752504                       # Number of ops (including micro ops) simulated
system.voltage_domain.voltage                       1                       # Voltage in Volts
system.clk_domain.clock                          1000                       # Clock period in ticks
system.mem_ctrls.bytes_read::ruby.dir_cntrl0     10228928                       # Number of bytes read from this memory
system.mem_ctrls.bytes_read::total           10228928                       # Number of bytes read from this memory
system.mem_ctrls.bytes_written::ruby.dir_cntrl0      1179712                       # Number of bytes written to this memory
system.mem_ctrls.bytes_written::total         1179712                       # Number of bytes written to this memory
system.mem_ctrls.num_reads::ruby.dir_cntrl0       159827                       # Number of read requests responded to by this memory
system.mem_ctrls.num_reads::total              159827                       # Number of read requests responded to by this memory
system.mem_ctrls.num_writes::ruby.dir_cntrl0        18433                       # Number of write requests responded to by this memory
system.mem_ctrls.num_writes::total              18433                       # Number of write requests responded to by this memory
system.mem_ctrls.bw_read::ruby.dir_cntrl0      3138851                       # Total read bandwidth from this memory (bytes/s)
system.mem_ctrls.bw_read::total               3138851                       # Total read bandwidth from this memory (bytes/s)
system.mem_ctrls.bw_write::ruby.dir_cntrl0       362007                       # Write bandwidth from this memory (bytes/s)
system.mem_ctrls.bw_write::total               362007                       # Write bandwidth from this memory (bytes/s)
system.mem_ctrls.bw_total::ruby.dir_cntrl0      3500858                       # Total bandwidth to/from this memory (bytes/s)
system.mem_ctrls.bw_total::total              3500858                       # Total bandwidth to/from this memory (bytes/s)
system.mem_ctrls.readReqs                      159827                       # Number of read requests accepted
system.mem_ctrls.writeReqs                      18433                       # Number of write requests accepted
system.mem_ctrls.readBursts                    159827                       # Number of DRAM read bursts, including those serviced by the write queue
system.mem_ctrls.writeBursts                    18433                       # Number of DRAM write bursts, including those merged in the write queue
system.mem_ctrls.bytesReadDRAM               10159744                       # Total number of bytes read from DRAM
system.mem_ctrls.bytesReadWrQ                   69184                       # Total number of bytes read from write queue
system.mem_ctrls.bytesWritten                 1169792                       # Total number of bytes written to DRAM
system.mem_ctrls.bytesReadSys                10228928                       # Total read bytes from the system interface side
system.mem_ctrls.bytesWrittenSys              1179712                       # Total written bytes from the system interface side
system.mem_ctrls.servicedByWrQ                   1081                       # Number of DRAM read bursts serviced by the write queue
system.mem_ctrls.mergedWrBursts                   142                       # Number of DRAM write bursts merged with an existing one
system.mem_ctrls.neitherReadNorWriteReqs            0                       # Number of requests that are neither read nor write
system.mem_ctrls.perBankRdBursts::0             10067                       # Per bank write bursts
system.mem_ctrls.perBankRdBursts::1             10247                       # Per bank write bursts
system.mem_ctrls.perBankRdBursts::2             10271                       # Per bank write bursts
system.mem_ctrls.perBankRdBursts::3              9210                       # Per bank write bursts
system.mem_ctrls.perBankRdBursts::4              9641                       # Per bank write bursts
system.mem_ctrls.perBankRdBursts::5              9552                       # Per bank write bursts
system.mem_ctrls.perBankRdBursts::6              9968                       # Per bank write bursts
system.mem_ctrls.perBankRdBursts::7             10233                       # Per bank write bursts
system.mem_ctrls.perBankRdBursts::8             10074                       # Per bank write bursts
system.mem_ctrls.perBankRdBursts::9             10362                       # Per bank write bursts
system.mem_ctrls.perBankRdBursts::10             9807                       # Per bank write bursts
system.mem_ctrls.perBankRdBursts::11             9402                       # Per bank write bursts
system.mem_ctrls.perBankRdBursts::12             9220                       # Per bank write bursts
system.mem_ctrls.perBankRdBursts::13            10063                       # Per bank write bursts
system.mem_ctrls.perBankRdBursts::14            10610                       # Per bank write bursts
system.mem_ctrls.perBankRdBursts::15            10019                       # Per bank write bursts
system.mem_ctrls.perBankWrBursts::0              1385                       # Per bank write bursts
system.mem_ctrls.perBankWrBursts::1              1338                       # Per bank write bursts
system.mem_ctrls.perBankWrBursts::2              1189                       # Per bank write bursts
system.mem_ctrls.perBankWrBursts::3               671                       # Per bank write bursts
system.mem_ctrls.perBankWrBursts::4              1174                       # Per bank write bursts
system.mem_ctrls.perBankWrBursts::5              1185                       # Per bank write bursts
system.mem_ctrls.perBankWrBursts::6              1288                       # Per bank write bursts
system.mem_ctrls.perBankWrBursts::7              1166                       # Per bank write bursts
system.mem_ctrls.perBankWrBursts::8              1359                       # Per bank write bursts
system.mem_ctrls.perBankWrBursts::9              1182                       # Per bank write bursts
system.mem_ctrls.perBankWrBursts::10             1108                       # Per bank write bursts
system.mem_ctrls.perBankWrBursts::11              844                       # Per bank write bursts
system.mem_ctrls.perBankWrBursts::12              969                       # Per bank write bursts
system.mem_ctrls.perBankWrBursts::13              897                       # Per bank write bursts
system.mem_ctrls.perBankWrBursts::14             1387                       # Per bank write bursts
system.mem_ctrls.perBankWrBursts::15             1136                       # Per bank write bursts
system.mem_ctrls.numRdRetry                         0                       # Number of times read queue was full causing retry
system.mem_ctrls.numWrRetry                         0                       # Number of times write queue was full causing retry
system.mem_ctrls.totGap                  3258812550500                       # Total gap between requests
system.mem_ctrls.readPktSize::0                     0                       # Read request sizes (log2)
system.mem_ctrls.readPktSize::1                     0                       # Read request sizes (log2)
system.mem_ctrls.readPktSize::2                     0                       # Read request sizes (log2)
system.mem_ctrls.readPktSize::3                     0                       # Read request sizes (log2)
system.mem_ctrls.readPktSize::4                     0                       # Read request sizes (log2)
system.mem_ctrls.readPktSize::5                     0                       # Read request sizes (log2)
system.mem_ctrls.readPktSize::6                159827                       # Read request sizes (log2)
system.mem_ctrls.writePktSize::0                    0                       # Write request sizes (log2)
system.mem_ctrls.writePktSize::1                    0                       # Write request sizes (log2)
system.mem_ctrls.writePktSize::2                    0                       # Write request sizes (log2)
system.mem_ctrls.writePktSize::3                    0                       # Write request sizes (log2)
system.mem_ctrls.writePktSize::4                    0                       # Write request sizes (log2)
system.mem_ctrls.writePktSize::5                    0                       # Write request sizes (log2)
system.mem_ctrls.writePktSize::6                18433                       # Write request sizes (log2)
system.mem_ctrls.rdQLenPdf::0                  158137                       # What read queue length does an incoming req see
system.mem_ctrls.rdQLenPdf::1                     597                       # What read queue length does an incoming req see
system.mem_ctrls.rdQLenPdf::2                      12                       # What read queue length does an incoming req see
system.mem_ctrls.rdQLenPdf::3                       0                       # What read queue length does an incoming req see
system.mem_ctrls.rdQLenPdf::4                       0                       # What read queue length does an incoming req see
system.mem_ctrls.rdQLenPdf::5                       0                       # What read queue length does an incoming req see
system.mem_ctrls.rdQLenPdf::6                       0                       # What read queue length does an incoming req see
system.mem_ctrls.rdQLenPdf::7                       0                       # What read queue length does an incoming req see
system.mem_ctrls.rdQLenPdf::8                       0                       # What read queue length does an incoming req see
system.mem_ctrls.rdQLenPdf::9                       0                       # What read queue length does an incoming req see
system.mem_ctrls.rdQLenPdf::10                      0                       # What read queue length does an incoming req see
system.mem_ctrls.rdQLenPdf::11                      0                       # What read queue length does an incoming req see
system.mem_ctrls.rdQLenPdf::12                      0                       # What read queue length does an incoming req see
system.mem_ctrls.rdQLenPdf::13                      0                       # What read queue length does an incoming req see
system.mem_ctrls.rdQLenPdf::14                      0                       # What read queue length does an incoming req see
system.mem_ctrls.rdQLenPdf::15                      0                       # What read queue length does an incoming req see
system.mem_ctrls.rdQLenPdf::16                      0                       # What read queue length does an incoming req see
system.mem_ctrls.rdQLenPdf::17                      0                       # What read queue length does an incoming req see
system.mem_ctrls.rdQLenPdf::18                      0                       # What read queue length does an incoming req see
system.mem_ctrls.rdQLenPdf::19                      0                       # What read queue length does an incoming req see
system.mem_ctrls.rdQLenPdf::20                      0                       # What read queue length does an incoming req see
system.mem_ctrls.rdQLenPdf::21                      0                       # What read queue length does an incoming req see
system.mem_ctrls.rdQLenPdf::22                      0                       # What read queue length does an incoming req see
system.mem_ctrls.rdQLenPdf::23                      0                       # What read queue length does an incoming req see
system.mem_ctrls.rdQLenPdf::24                      0                       # What read queue length does an incoming req see
system.mem_ctrls.rdQLenPdf::25                      0                       # What read queue length does an incoming req see
system.mem_ctrls.rdQLenPdf::26                      0                       # What read queue length does an incoming req see
system.mem_ctrls.rdQLenPdf::27                      0                       # What read queue length does an incoming req see
system.mem_ctrls.rdQLenPdf::28                      0                       # What read queue length does an incoming req see
system.mem_ctrls.rdQLenPdf::29                      0                       # What read queue length does an incoming req see
system.mem_ctrls.rdQLenPdf::30                      0                       # What read queue length does an incoming req see
system.mem_ctrls.rdQLenPdf::31                      0                       # What read queue length does an incoming req see
system.mem_ctrls.wrQLenPdf::0                       0                       # What write queue length does an incoming req see
system.mem_ctrls.wrQLenPdf::1                       0                       # What write queue length does an incoming req see
system.mem_ctrls.wrQLenPdf::2                       0                       # What write queue length does an incoming req see
system.mem_ctrls.wrQLenPdf::3                       0                       # What write queue length does an incoming req see
system.mem_ctrls.wrQLenPdf::4                       0                       # What write queue length does an incoming req see
system.mem_ctrls.wrQLenPdf::5                       0                       # What write queue length does an incoming req see
system.mem_ctrls.wrQLenPdf::6                       0                       # What write queue length does an incoming req see
system.mem_ctrls.wrQLenPdf::7                       0                       # What write queue length does an incoming req see
system.mem_ctrls.wrQLenPdf::8                       0                       # What write queue length does an incoming req see
system.mem_ctrls.wrQLenPdf::9                       0                       # What write queue length does an incoming req see
system.mem_ctrls.wrQLenPdf::10                      0                       # What write queue length does an incoming req see
system.mem_ctrls.wrQLenPdf::11                      0                       # What write queue length does an incoming req see
system.mem_ctrls.wrQLenPdf::12                      0                       # What write queue length does an incoming req see
system.mem_ctrls.wrQLenPdf::13                      0                       # What write queue length does an incoming req see
system.mem_ctrls.wrQLenPdf::14                      0                       # What write queue length does an incoming req see
system.mem_ctrls.wrQLenPdf::15                    203                       # What write queue length does an incoming req see
system.mem_ctrls.wrQLenPdf::16                    254                       # What write queue length does an incoming req see
system.mem_ctrls.wrQLenPdf::17                   1093                       # What write queue length does an incoming req see
system.mem_ctrls.wrQLenPdf::18                   1134                       # What write queue length does an incoming req see
system.mem_ctrls.wrQLenPdf::19                   1114                       # What write queue length does an incoming req see
system.mem_ctrls.wrQLenPdf::20                   1152                       # What write queue length does an incoming req see
system.mem_ctrls.wrQLenPdf::21                   1148                       # What write queue length does an incoming req see
system.mem_ctrls.wrQLenPdf::22                   1110                       # What write queue length does an incoming req see
system.mem_ctrls.wrQLenPdf::23                   1144                       # What write queue length does an incoming req see
system.mem_ctrls.wrQLenPdf::24                   1127                       # What write queue length does an incoming req see
system.mem_ctrls.wrQLenPdf::25                   1097                       # What write queue length does an incoming req see
system.mem_ctrls.wrQLenPdf::26                   1104                       # What write queue length does an incoming req see
system.mem_ctrls.wrQLenPdf::27                   1093                       # What write queue length does an incoming req see
system.mem_ctrls.wrQLenPdf::28                   1108                       # What write queue length does an incoming req see
system.mem_ctrls.wrQLenPdf::29                   1077                       # What write queue length does an incoming req see
system.mem_ctrls.wrQLenPdf::30                   1075                       # What write queue length does an incoming req see
system.mem_ctrls.wrQLenPdf::31                   1082                       # What write queue length does an incoming req see
system.mem_ctrls.wrQLenPdf::32                   1067                       # What write queue length does an incoming req see
system.mem_ctrls.wrQLenPdf::33                     14                       # What write queue length does an incoming req see
system.mem_ctrls.wrQLenPdf::34                     18                       # What write queue length does an incoming req see
system.mem_ctrls.wrQLenPdf::35                     13                       # What write queue length does an incoming req see
system.mem_ctrls.wrQLenPdf::36                     12                       # What write queue length does an incoming req see
system.mem_ctrls.wrQLenPdf::37                     15                       # What write queue length does an incoming req see
system.mem_ctrls.wrQLenPdf::38                      8                       # What write queue length does an incoming req see
system.mem_ctrls.wrQLenPdf::39                      7                       # What write queue length does an incoming req see
system.mem_ctrls.wrQLenPdf::40                      9                       # What write queue length does an incoming req see
system.mem_ctrls.wrQLenPdf::41                      5                       # What write queue length does an incoming req see
system.mem_ctrls.wrQLenPdf::42                      4                       # What write queue length does an incoming req see
system.mem_ctrls.wrQLenPdf::43                      3                       # What write queue length does an incoming req see
system.mem_ctrls.wrQLenPdf::44                      1                       # What write queue length does an incoming req see
system.mem_ctrls.wrQLenPdf::45                      0                       # What write queue length does an incoming req see
system.mem_ctrls.wrQLenPdf::46                      0                       # What write queue length does an incoming req see
system.mem_ctrls.wrQLenPdf::47                      0                       # What write queue length does an incoming req see
system.mem_ctrls.wrQLenPdf::48                      0                       # What write queue length does an incoming req see
system.mem_ctrls.wrQLenPdf::49                      0                       # What write queue length does an incoming req see
system.mem_ctrls.wrQLenPdf::50                      0                       # What write queue length does an incoming req see
system.mem_ctrls.wrQLenPdf::51                      0                       # What write queue length does an incoming req see
system.mem_ctrls.wrQLenPdf::52                      0                       # What write queue length does an incoming req see
system.mem_ctrls.wrQLenPdf::53                      0                       # What write queue length does an incoming req see
system.mem_ctrls.wrQLenPdf::54                      0                       # What write queue length does an incoming req see
system.mem_ctrls.wrQLenPdf::55                      0                       # What write queue length does an incoming req see
system.mem_ctrls.wrQLenPdf::56                      0                       # What write queue length does an incoming req see
system.mem_ctrls.wrQLenPdf::57                      0                       # What write queue length does an incoming req see
system.mem_ctrls.wrQLenPdf::58                      0                       # What write queue length does an incoming req see
system.mem_ctrls.wrQLenPdf::59                      0                       # What write queue length does an incoming req see
system.mem_ctrls.wrQLenPdf::60                      0                       # What write queue length does an incoming req see
system.mem_ctrls.wrQLenPdf::61                      0                       # What write queue length does an incoming req see
system.mem_ctrls.wrQLenPdf::62                      0                       # What write queue length does an incoming req see
system.mem_ctrls.wrQLenPdf::63                      0                       # What write queue length does an incoming req see
system.mem_ctrls.bytesPerActivate::samples        42054                       # Bytes accessed per row activation
system.mem_ctrls.bytesPerActivate::mean    269.410567                       # Bytes accessed per row activation
system.mem_ctrls.bytesPerActivate::gmean   144.017538                       # Bytes accessed per row activation
system.mem_ctrls.bytesPerActivate::stdev   341.267312                       # Bytes accessed per row activation
system.mem_ctrls.bytesPerActivate::0-127        21694     51.59%     51.59% # Bytes accessed per row activation
system.mem_ctrls.bytesPerActivate::128-255         8829     20.99%     72.58% # Bytes accessed per row activation
system.mem_ctrls.bytesPerActivate::256-383         2442      5.81%     78.39% # Bytes accessed per row activation
system.mem_ctrls.bytesPerActivate::384-511         1189      2.83%     81.21% # Bytes accessed per row activation
system.mem_ctrls.bytesPerActivate::512-639          723      1.72%     82.93% # Bytes accessed per row activation
system.mem_ctrls.bytesPerActivate::640-767          431      1.02%     83.96% # Bytes accessed per row activation
system.mem_ctrls.bytesPerActivate::768-895          354      0.84%     84.80% # Bytes accessed per row activation
system.mem_ctrls.bytesPerActivate::896-1023          310      0.74%     85.54% # Bytes accessed per row activation
system.mem_ctrls.bytesPerActivate::1024-1151         6082     14.46%    100.00% # Bytes accessed per row activation
system.mem_ctrls.bytesPerActivate::total        42054                       # Bytes accessed per row activation
system.mem_ctrls.rdPerTurnAround::samples         1066                       # Reads before turning the bus around for writes
system.mem_ctrls.rdPerTurnAround::mean     148.904315                       # Reads before turning the bus around for writes
system.mem_ctrls.rdPerTurnAround::stdev   1949.807295                       # Reads before turning the bus around for writes
system.mem_ctrls.rdPerTurnAround::0-2047         1062     99.62%     99.62% # Reads before turning the bus around for writes
system.mem_ctrls.rdPerTurnAround::4096-6143            1      0.09%     99.72% # Reads before turning the bus around for writes
system.mem_ctrls.rdPerTurnAround::10240-12287            1      0.09%     99.81% # Reads before turning the bus around for writes
system.mem_ctrls.rdPerTurnAround::18432-20479            1      0.09%     99.91% # Reads before turning the bus around for writes
system.mem_ctrls.rdPerTurnAround::59392-61439            1      0.09%    100.00% # Reads before turning the bus around for writes
system.mem_ctrls.rdPerTurnAround::total          1066                       # Reads before turning the bus around for writes
system.mem_ctrls.wrPerTurnAround::samples         1066                       # Writes before turning the bus around for reads
system.mem_ctrls.wrPerTurnAround::mean      17.146341                       # Writes before turning the bus around for reads
system.mem_ctrls.wrPerTurnAround::gmean     16.956710                       # Writes before turning the bus around for reads
system.mem_ctrls.wrPerTurnAround::stdev      2.978037                       # Writes before turning the bus around for reads
system.mem_ctrls.wrPerTurnAround::16              841     78.89%     78.89% # Writes before turning the bus around for reads
system.mem_ctrls.wrPerTurnAround::17               11      1.03%     79.92% # Writes before turning the bus around for reads
system.mem_ctrls.wrPerTurnAround::18               83      7.79%     87.71% # Writes before turning the bus around for reads
system.mem_ctrls.wrPerTurnAround::19                5      0.47%     88.18% # Writes before turning the bus around for reads
system.mem_ctrls.wrPerTurnAround::20                1      0.09%     88.27% # Writes before turning the bus around for reads
system.mem_ctrls.wrPerTurnAround::21               36      3.38%     91.65% # Writes before turning the bus around for reads
system.mem_ctrls.wrPerTurnAround::22               19      1.78%     93.43% # Writes before turning the bus around for reads
system.mem_ctrls.wrPerTurnAround::24               33      3.10%     96.53% # Writes before turning the bus around for reads
system.mem_ctrls.wrPerTurnAround::25                8      0.75%     97.28% # Writes before turning the bus around for reads
system.mem_ctrls.wrPerTurnAround::26                2      0.19%     97.47% # Writes before turning the bus around for reads
system.mem_ctrls.wrPerTurnAround::27                1      0.09%     97.56% # Writes before turning the bus around for reads
system.mem_ctrls.wrPerTurnAround::28               20      1.88%     99.44% # Writes before turning the bus around for reads
system.mem_ctrls.wrPerTurnAround::29                1      0.09%     99.53% # Writes before turning the bus around for reads
system.mem_ctrls.wrPerTurnAround::33                2      0.19%     99.72% # Writes before turning the bus around for reads
system.mem_ctrls.wrPerTurnAround::37                1      0.09%     99.81% # Writes before turning the bus around for reads
system.mem_ctrls.wrPerTurnAround::38                1      0.09%     99.91% # Writes before turning the bus around for reads
system.mem_ctrls.wrPerTurnAround::51                1      0.09%    100.00% # Writes before turning the bus around for reads
system.mem_ctrls.wrPerTurnAround::total          1066                       # Writes before turning the bus around for reads
system.mem_ctrls.totQLat                    992565745                       # Total ticks spent queuing
system.mem_ctrls.totMemAccLat              3969053245                       # Total ticks spent from burst creation until serviced by the DRAM
system.mem_ctrls.totBusLat                  793730000                       # Total ticks spent in databus transfers
system.mem_ctrls.avgQLat                      6252.54                       # Average queueing delay per DRAM burst
system.mem_ctrls.avgBusLat                    5000.00                       # Average bus latency per DRAM burst
system.mem_ctrls.avgMemAccLat                25002.54                       # Average memory access latency per DRAM burst
system.mem_ctrls.avgRdBW                         3.12                       # Average DRAM read bandwidth in MiByte/s
system.mem_ctrls.avgWrBW                         0.36                       # Average achieved write bandwidth in MiByte/s
system.mem_ctrls.avgRdBWSys                      3.14                       # Average system read bandwidth in MiByte/s
system.mem_ctrls.avgWrBWSys                      0.36                       # Average system write bandwidth in MiByte/s
system.mem_ctrls.peakBW                      12800.00                       # Theoretical peak bandwidth in MiByte/s
system.mem_ctrls.busUtil                         0.03                       # Data bus utilization in percentage
system.mem_ctrls.busUtilRead                     0.02                       # Data bus utilization in percentage for reads
system.mem_ctrls.busUtilWrite                    0.00                       # Data bus utilization in percentage for writes
system.mem_ctrls.avgRdQLen                       1.00                       # Average read queue length when enqueuing
system.mem_ctrls.avgWrQLen                      25.00                       # Average write queue length when enqueuing
system.mem_ctrls.readRowHits                   126018                       # Number of row buffer hits during reads
system.mem_ctrls.writeRowHits                    8952                       # Number of row buffer hits during writes
system.mem_ctrls.readRowHitRate                 79.38                       # Row buffer hit rate for reads
system.mem_ctrls.writeRowHitRate                48.94                       # Row buffer hit rate for writes
system.mem_ctrls.avgGap                   18281232.75                       # Average gap between requests
system.mem_ctrls.pageHitRate                    76.24                       # Row buffer hit rate, read and write combined
system.mem_ctrls_0.actEnergy                179096400                       # Energy for activate commands per rank (pJ)
system.mem_ctrls_0.preEnergy                 97721250                       # Energy for precharge commands per rank (pJ)
system.mem_ctrls_0.readEnergy               681766800                       # Energy for read commands per rank (pJ)
system.mem_ctrls_0.writeEnergy               60937920                       # Energy for write commands per rank (pJ)
system.mem_ctrls_0.refreshEnergy         213121730640                       # Energy for refresh commands per rank (pJ)
system.mem_ctrls_0.actBackEnergy          97076508480                       # Energy for active background per rank (pJ)
system.mem_ctrls_0.preBackEnergy         1872630924750                       # Energy for precharge background per rank (pJ)
system.mem_ctrls_0.totalEnergy           2183848686240                       # Total energy per rank (pJ)
system.mem_ctrls_0.averagePower            669.281206                       # Core power per rank (mW)
system.mem_ctrls_0.memoryStateTime::IDLE 3113409766250                       # Time in different power states
system.mem_ctrls_0.memoryStateTime::REF  108819100000                       # Time in different power states
system.mem_ctrls_0.memoryStateTime::PRE_PDN            0                       # Time in different power states
system.mem_ctrls_0.memoryStateTime::ACT   36584339750                       # Time in different power states
system.mem_ctrls_0.memoryStateTime::ACT_PDN            0                       # Time in different power states
system.mem_ctrls_1.actEnergy                169139880                       # Energy for activate commands per rank (pJ)
system.mem_ctrls_1.preEnergy                 92288625                       # Energy for precharge commands per rank (pJ)
system.mem_ctrls_1.readEnergy               685659000                       # Energy for read commands per rank (pJ)
system.mem_ctrls_1.writeEnergy               57607200                       # Energy for write commands per rank (pJ)
system.mem_ctrls_1.refreshEnergy         213121730640                       # Energy for refresh commands per rank (pJ)
system.mem_ctrls_1.actBackEnergy          94811295420                       # Energy for active background per rank (pJ)
system.mem_ctrls_1.preBackEnergy         1874617945500                       # Energy for precharge background per rank (pJ)
system.mem_ctrls_1.totalEnergy           2183555666265                       # Total energy per rank (pJ)
system.mem_ctrls_1.averagePower            669.191407                       # Core power per rank (mW)
system.mem_ctrls_1.memoryStateTime::IDLE 3116766689750                       # Time in different power states
system.mem_ctrls_1.memoryStateTime::REF  108819100000                       # Time in different power states
system.mem_ctrls_1.memoryStateTime::PRE_PDN            0                       # Time in different power states
system.mem_ctrls_1.memoryStateTime::ACT   33232340250                       # Time in different power states
system.mem_ctrls_1.memoryStateTime::ACT_PDN            0                       # Time in different power states
system.cpu_voltage_domain.voltage                   1                       # Voltage in Volts
system.cpu_clk_domain.clock                       500                       # Clock period in ticks
system.cpu0.apic_clk_domain.clock                8000                       # Clock period in ticks
system.cpu0.numCycles                      6521269498                       # number of cpu cycles simulated
system.cpu0.numWorkItemsStarted                     0                       # number of work items this cpu started
system.cpu0.numWorkItemsCompleted                   0                       # number of work items this cpu completed
system.cpu0.kern.inst.arm                           0                       # number of arm instructions executed
system.cpu0.kern.inst.quiesce                       0                       # number of quiesce instructions executed
system.cpu0.committedInsts                    3187199                       # Number of instructions committed
system.cpu0.committedOps                      6811620                       # Number of ops (including micro ops) committed
system.cpu0.num_int_alu_accesses              6680699                       # Number of integer alu accesses
system.cpu0.num_fp_alu_accesses                   165                       # Number of float alu accesses
system.cpu0.num_func_calls                     190812                       # number of times a function call or return occured
system.cpu0.num_conditional_control_insts       523262                       # number of instructions that are conditional controls
system.cpu0.num_int_insts                     6680699                       # number of integer instructions
system.cpu0.num_fp_insts                          165                       # number of float instructions
system.cpu0.num_int_register_reads           13248239                       # number of times the integer registers were read
system.cpu0.num_int_register_writes           5492068                       # number of times the integer registers were written
system.cpu0.num_fp_register_reads                 273                       # number of times the floating registers were read
system.cpu0.num_fp_register_writes                133                       # number of times the floating registers were written
system.cpu0.num_cc_register_reads             4075174                       # number of times the CC registers were read
system.cpu0.num_cc_register_writes            2139051                       # number of times the CC registers were written
system.cpu0.num_mem_refs                      1503271                       # number of memory refs
system.cpu0.num_load_insts                     934460                       # Number of load instructions
system.cpu0.num_store_insts                    568811                       # Number of store instructions
system.cpu0.num_idle_cycles              6506962691.831001                       # Number of idle cycles
system.cpu0.num_busy_cycles              14306806.168999                       # Number of busy cycles
system.cpu0.not_idle_fraction                0.002194                       # Percentage of non-idle cycles
system.cpu0.idle_fraction                    0.997806                       # Percentage of idle cycles
system.cpu0.Branches                           770251                       # Number of branches fetched
system.cpu0.op_class::No_OpClass                95833      1.41%      1.41% # Class of executed instruction
system.cpu0.op_class::IntAlu                  5167342     75.86%     77.27% # Class of executed instruction
system.cpu0.op_class::IntMult                   14381      0.21%     77.48% # Class of executed instruction
system.cpu0.op_class::IntDiv                    30695      0.45%     77.93% # Class of executed instruction
system.cpu0.op_class::FloatAdd                    122      0.00%     77.93% # Class of executed instruction
system.cpu0.op_class::FloatCmp                      0      0.00%     77.93% # Class of executed instruction
system.cpu0.op_class::FloatCvt                      0      0.00%     77.93% # Class of executed instruction
system.cpu0.op_class::FloatMult                     0      0.00%     77.93% # Class of executed instruction
system.cpu0.op_class::FloatDiv                      0      0.00%     77.93% # Class of executed instruction
system.cpu0.op_class::FloatSqrt                     0      0.00%     77.93% # Class of executed instruction
system.cpu0.op_class::SimdAdd                       0      0.00%     77.93% # Class of executed instruction
system.cpu0.op_class::SimdAddAcc                    0      0.00%     77.93% # Class of executed instruction
system.cpu0.op_class::SimdAlu                       0      0.00%     77.93% # Class of executed instruction
system.cpu0.op_class::SimdCmp                       0      0.00%     77.93% # Class of executed instruction
system.cpu0.op_class::SimdCvt                       0      0.00%     77.93% # Class of executed instruction
system.cpu0.op_class::SimdMisc                      0      0.00%     77.93% # Class of executed instruction
system.cpu0.op_class::SimdMult                      0      0.00%     77.93% # Class of executed instruction
system.cpu0.op_class::SimdMultAcc                   0      0.00%     77.93% # Class of executed instruction
system.cpu0.op_class::SimdShift                     0      0.00%     77.93% # Class of executed instruction
system.cpu0.op_class::SimdShiftAcc                  0      0.00%     77.93% # Class of executed instruction
system.cpu0.op_class::SimdSqrt                      0      0.00%     77.93% # Class of executed instruction
system.cpu0.op_class::SimdFloatAdd                  0      0.00%     77.93% # Class of executed instruction
system.cpu0.op_class::SimdFloatAlu                  0      0.00%     77.93% # Class of executed instruction
system.cpu0.op_class::SimdFloatCmp                  0      0.00%     77.93% # Class of executed instruction
system.cpu0.op_class::SimdFloatCvt                  0      0.00%     77.93% # Class of executed instruction
system.cpu0.op_class::SimdFloatDiv                  0      0.00%     77.93% # Class of executed instruction
system.cpu0.op_class::SimdFloatMisc                 0      0.00%     77.93% # Class of executed instruction
system.cpu0.op_class::SimdFloatMult                 0      0.00%     77.93% # Class of executed instruction
system.cpu0.op_class::SimdFloatMultAcc              0      0.00%     77.93% # Class of executed instruction
system.cpu0.op_class::SimdFloatSqrt                 0      0.00%     77.93% # Class of executed instruction
system.cpu0.op_class::MemRead                  934460     13.72%     91.65% # Class of executed instruction
system.cpu0.op_class::MemWrite                 568811      8.35%    100.00% # Class of executed instruction
system.cpu0.op_class::IprAccess                     0      0.00%    100.00% # Class of executed instruction
system.cpu0.op_class::InstPrefetch                  0      0.00%    100.00% # Class of executed instruction
system.cpu0.op_class::total                   6811644                       # Class of executed instruction
system.cpu1.apic_clk_domain.clock                8000                       # Clock period in ticks
system.cpu1.numCycles                      6519145719                       # number of cpu cycles simulated
system.cpu1.numWorkItemsStarted                     0                       # number of work items this cpu started
system.cpu1.numWorkItemsCompleted                   0                       # number of work items this cpu completed
system.cpu1.kern.inst.arm                           0                       # number of arm instructions executed
system.cpu1.kern.inst.quiesce                       0                       # number of quiesce instructions executed
system.cpu1.committedInsts                 1523011092                       # Number of instructions committed
system.cpu1.committedOps                   2548444909                       # Number of ops (including micro ops) committed
system.cpu1.num_int_alu_accesses           1952893995                       # Number of integer alu accesses
system.cpu1.num_fp_alu_accesses             965601665                       # Number of float alu accesses
system.cpu1.num_func_calls                   35524619                       # number of times a function call or return occured
system.cpu1.num_conditional_control_insts    171934408                       # number of instructions that are conditional controls
system.cpu1.num_int_insts                  1952893995                       # number of integer instructions
system.cpu1.num_fp_insts                    965601665                       # number of float instructions
system.cpu1.num_int_register_reads         4136300322                       # number of times the integer registers were read
system.cpu1.num_int_register_writes        1332260758                       # number of times the integer registers were written
system.cpu1.num_fp_register_reads          1529965546                       # number of times the floating registers were read
system.cpu1.num_fp_register_writes          790021367                       # number of times the floating registers were written
system.cpu1.num_cc_register_reads          1449537634                       # number of times the CC registers were read
system.cpu1.num_cc_register_writes          551361373                       # number of times the CC registers were written
system.cpu1.num_mem_refs                    645403034                       # number of memory refs
system.cpu1.num_load_insts                  478786988                       # Number of load instructions
system.cpu1.num_store_insts                 166616046                       # Number of store instructions
system.cpu1.num_idle_cycles              5064840.002765                       # Number of idle cycles
system.cpu1.num_busy_cycles              6514080878.997234                       # Number of busy cycles
system.cpu1.not_idle_fraction                0.999223                       # Percentage of non-idle cycles
system.cpu1.idle_fraction                    0.000777                       # Percentage of idle cycles
system.cpu1.Branches                        231865356                       # Number of branches fetched
system.cpu1.op_class::No_OpClass              3404193      0.13%      0.13% # Class of executed instruction
system.cpu1.op_class::IntAlu               1476130321     57.92%     58.06% # Class of executed instruction
system.cpu1.op_class::IntMult                 4735986      0.19%     58.24% # Class of executed instruction
system.cpu1.op_class::IntDiv                 19610454      0.77%     59.01% # Class of executed instruction
system.cpu1.op_class::FloatAdd              398092941     15.62%     74.63% # Class of executed instruction
system.cpu1.op_class::FloatCmp                      0      0.00%     74.63% # Class of executed instruction
system.cpu1.op_class::FloatCvt                      0      0.00%     74.63% # Class of executed instruction
system.cpu1.op_class::FloatMult                     0      0.00%     74.63% # Class of executed instruction
system.cpu1.op_class::FloatDiv                1068156      0.04%     74.67% # Class of executed instruction
system.cpu1.op_class::FloatSqrt                     0      0.00%     74.67% # Class of executed instruction
system.cpu1.op_class::SimdAdd                       0      0.00%     74.67% # Class of executed instruction
system.cpu1.op_class::SimdAddAcc                    0      0.00%     74.67% # Class of executed instruction
system.cpu1.op_class::SimdAlu                       0      0.00%     74.67% # Class of executed instruction
system.cpu1.op_class::SimdCmp                       0      0.00%     74.67% # Class of executed instruction
system.cpu1.op_class::SimdCvt                       0      0.00%     74.67% # Class of executed instruction
system.cpu1.op_class::SimdMisc                      0      0.00%     74.67% # Class of executed instruction
system.cpu1.op_class::SimdMult                      0      0.00%     74.67% # Class of executed instruction
system.cpu1.op_class::SimdMultAcc                   0      0.00%     74.67% # Class of executed instruction
system.cpu1.op_class::SimdShift                     0      0.00%     74.67% # Class of executed instruction
system.cpu1.op_class::SimdShiftAcc                  0      0.00%     74.67% # Class of executed instruction
system.cpu1.op_class::SimdSqrt                      0      0.00%     74.67% # Class of executed instruction
system.cpu1.op_class::SimdFloatAdd                  0      0.00%     74.67% # Class of executed instruction
system.cpu1.op_class::SimdFloatAlu                  0      0.00%     74.67% # Class of executed instruction
system.cpu1.op_class::SimdFloatCmp                  0      0.00%     74.67% # Class of executed instruction
system.cpu1.op_class::SimdFloatCvt                  0      0.00%     74.67% # Class of executed instruction
system.cpu1.op_class::SimdFloatDiv                  0      0.00%     74.67% # Class of executed instruction
system.cpu1.op_class::SimdFloatMisc                 0      0.00%     74.67% # Class of executed instruction
system.cpu1.op_class::SimdFloatMult                 0      0.00%     74.67% # Class of executed instruction
system.cpu1.op_class::SimdFloatMultAcc              0      0.00%     74.67% # Class of executed instruction
system.cpu1.op_class::SimdFloatSqrt                 0      0.00%     74.67% # Class of executed instruction
system.cpu1.op_class::MemRead               478786988     18.79%     93.46% # Class of executed instruction
system.cpu1.op_class::MemWrite              166616046      6.54%    100.00% # Class of executed instruction
system.cpu1.op_class::IprAccess                     0      0.00%    100.00% # Class of executed instruction
system.cpu1.op_class::InstPrefetch                  0      0.00%    100.00% # Class of executed instruction
system.cpu1.op_class::total                2548445085                       # Class of executed instruction
system.cpu2.apic_clk_domain.clock                8000                       # Clock period in ticks
system.cpu2.numCycles                      6514582281                       # number of cpu cycles simulated
system.cpu2.numWorkItemsStarted                     0                       # number of work items this cpu started
system.cpu2.numWorkItemsCompleted                   0                       # number of work items this cpu completed
system.cpu2.kern.inst.arm                           0                       # number of arm instructions executed
system.cpu2.kern.inst.quiesce                       0                       # number of quiesce instructions executed
system.cpu2.committedInsts                    2801960                       # Number of instructions committed
system.cpu2.committedOps                      5977512                       # Number of ops (including micro ops) committed
system.cpu2.num_int_alu_accesses              5858319                       # Number of integer alu accesses
system.cpu2.num_fp_alu_accesses                     0                       # Number of float alu accesses
system.cpu2.num_func_calls                     157304                       # number of times a function call or return occured
system.cpu2.num_conditional_control_insts       480288                       # number of instructions that are conditional controls
system.cpu2.num_int_insts                     5858319                       # number of integer instructions
system.cpu2.num_fp_insts                            0                       # number of float instructions
system.cpu2.num_int_register_reads           11615418                       # number of times the integer registers were read
system.cpu2.num_int_register_writes           4835877                       # number of times the integer registers were written
system.cpu2.num_fp_register_reads                   0                       # number of times the floating registers were read
system.cpu2.num_fp_register_writes                  0                       # number of times the floating registers were written
system.cpu2.num_cc_register_reads             3677121                       # number of times the CC registers were read
system.cpu2.num_cc_register_writes            1864665                       # number of times the CC registers were written
system.cpu2.num_mem_refs                      1315209                       # number of memory refs
system.cpu2.num_load_insts                     822864                       # Number of load instructions
system.cpu2.num_store_insts                    492345                       # Number of store instructions
system.cpu2.num_idle_cycles              6502276544.744264                       # Number of idle cycles
system.cpu2.num_busy_cycles              12305736.255737                       # Number of busy cycles
system.cpu2.not_idle_fraction                0.001889                       # Percentage of non-idle cycles
system.cpu2.idle_fraction                    0.998111                       # Percentage of idle cycles
system.cpu2.Branches                           686670                       # Number of branches fetched
system.cpu2.op_class::No_OpClass                97123      1.62%      1.62% # Class of executed instruction
system.cpu2.op_class::IntAlu                  4520508     75.63%     77.25% # Class of executed instruction
system.cpu2.op_class::IntMult                   10830      0.18%     77.43% # Class of executed instruction
system.cpu2.op_class::IntDiv                    33845      0.57%     78.00% # Class of executed instruction
system.cpu2.op_class::FloatAdd                      0      0.00%     78.00% # Class of executed instruction
system.cpu2.op_class::FloatCmp                      0      0.00%     78.00% # Class of executed instruction
system.cpu2.op_class::FloatCvt                      0      0.00%     78.00% # Class of executed instruction
system.cpu2.op_class::FloatMult                     0      0.00%     78.00% # Class of executed instruction
system.cpu2.op_class::FloatDiv                      0      0.00%     78.00% # Class of executed instruction
system.cpu2.op_class::FloatSqrt                     0      0.00%     78.00% # Class of executed instruction
system.cpu2.op_class::SimdAdd                       0      0.00%     78.00% # Class of executed instruction
system.cpu2.op_class::SimdAddAcc                    0      0.00%     78.00% # Class of executed instruction
system.cpu2.op_class::SimdAlu                       0      0.00%     78.00% # Class of executed instruction
system.cpu2.op_class::SimdCmp                       0      0.00%     78.00% # Class of executed instruction
system.cpu2.op_class::SimdCvt                       0      0.00%     78.00% # Class of executed instruction
system.cpu2.op_class::SimdMisc                      0      0.00%     78.00% # Class of executed instruction
system.cpu2.op_class::SimdMult                      0      0.00%     78.00% # Class of executed instruction
system.cpu2.op_class::SimdMultAcc                   0      0.00%     78.00% # Class of executed instruction
system.cpu2.op_class::SimdShift                     0      0.00%     78.00% # Class of executed instruction
system.cpu2.op_class::SimdShiftAcc                  0      0.00%     78.00% # Class of executed instruction
system.cpu2.op_class::SimdSqrt                      0      0.00%     78.00% # Class of executed instruction
system.cpu2.op_class::SimdFloatAdd                  0      0.00%     78.00% # Class of executed instruction
system.cpu2.op_class::SimdFloatAlu                  0      0.00%     78.00% # Class of executed instruction
system.cpu2.op_class::SimdFloatCmp                  0      0.00%     78.00% # Class of executed instruction
system.cpu2.op_class::SimdFloatCvt                  0      0.00%     78.00% # Class of executed instruction
system.cpu2.op_class::SimdFloatDiv                  0      0.00%     78.00% # Class of executed instruction
system.cpu2.op_class::SimdFloatMisc                 0      0.00%     78.00% # Class of executed instruction
system.cpu2.op_class::SimdFloatMult                 0      0.00%     78.00% # Class of executed instruction
system.cpu2.op_class::SimdFloatMultAcc              0      0.00%     78.00% # Class of executed instruction
system.cpu2.op_class::SimdFloatSqrt                 0      0.00%     78.00% # Class of executed instruction
system.cpu2.op_class::MemRead                  822864     13.77%     91.76% # Class of executed instruction
system.cpu2.op_class::MemWrite                 492345      8.24%    100.00% # Class of executed instruction
system.cpu2.op_class::IprAccess                     0      0.00%    100.00% # Class of executed instruction
system.cpu2.op_class::InstPrefetch                  0      0.00%    100.00% # Class of executed instruction
system.cpu2.op_class::total                   5977515                       # Class of executed instruction
system.cpu3.apic_clk_domain.clock                8000                       # Clock period in ticks
system.cpu3.numCycles                      6516311806                       # number of cpu cycles simulated
system.cpu3.numWorkItemsStarted                     0                       # number of work items this cpu started
system.cpu3.numWorkItemsCompleted                   0                       # number of work items this cpu completed
system.cpu3.kern.inst.arm                           0                       # number of arm instructions executed
system.cpu3.kern.inst.quiesce                       0                       # number of quiesce instructions executed
system.cpu3.committedInsts                    3677314                       # Number of instructions committed
system.cpu3.committedOps                      7609359                       # Number of ops (including micro ops) committed
system.cpu3.num_int_alu_accesses              7468266                       # Number of integer alu accesses
system.cpu3.num_fp_alu_accesses                  1778                       # Number of float alu accesses
system.cpu3.num_func_calls                     188246                       # number of times a function call or return occured
system.cpu3.num_conditional_control_insts       629067                       # number of instructions that are conditional controls
system.cpu3.num_int_insts                     7468266                       # number of integer instructions
system.cpu3.num_fp_insts                         1778                       # number of float instructions
system.cpu3.num_int_register_reads           14850300                       # number of times the integer registers were read
system.cpu3.num_int_register_writes           6136498                       # number of times the integer registers were written
system.cpu3.num_fp_register_reads                2988                       # number of times the floating registers were read
system.cpu3.num_fp_register_writes               1416                       # number of times the floating registers were written
system.cpu3.num_cc_register_reads             4693321                       # number of times the CC registers were read
system.cpu3.num_cc_register_writes            2449528                       # number of times the CC registers were written
system.cpu3.num_mem_refs                      1672259                       # number of memory refs
system.cpu3.num_load_insts                    1046236                       # Number of load instructions
system.cpu3.num_store_insts                    626023                       # Number of store instructions
system.cpu3.num_idle_cycles              6499368592.091947                       # Number of idle cycles
system.cpu3.num_busy_cycles              16943213.908053                       # Number of busy cycles
system.cpu3.not_idle_fraction                0.002600                       # Percentage of non-idle cycles
system.cpu3.idle_fraction                    0.997400                       # Percentage of idle cycles
system.cpu3.Branches                           876309                       # Number of branches fetched
system.cpu3.op_class::No_OpClass               106683      1.40%      1.40% # Class of executed instruction
system.cpu3.op_class::IntAlu                  5780728     75.97%     77.37% # Class of executed instruction
system.cpu3.op_class::IntMult                   11801      0.16%     77.52% # Class of executed instruction
system.cpu3.op_class::IntDiv                    36633      0.48%     78.01% # Class of executed instruction
system.cpu3.op_class::FloatAdd                   1344      0.02%     78.02% # Class of executed instruction
system.cpu3.op_class::FloatCmp                      0      0.00%     78.02% # Class of executed instruction
system.cpu3.op_class::FloatCvt                      0      0.00%     78.02% # Class of executed instruction
system.cpu3.op_class::FloatMult                     0      0.00%     78.02% # Class of executed instruction
system.cpu3.op_class::FloatDiv                      0      0.00%     78.02% # Class of executed instruction
system.cpu3.op_class::FloatSqrt                     0      0.00%     78.02% # Class of executed instruction
system.cpu3.op_class::SimdAdd                       0      0.00%     78.02% # Class of executed instruction
system.cpu3.op_class::SimdAddAcc                    0      0.00%     78.02% # Class of executed instruction
system.cpu3.op_class::SimdAlu                       0      0.00%     78.02% # Class of executed instruction
system.cpu3.op_class::SimdCmp                       0      0.00%     78.02% # Class of executed instruction
system.cpu3.op_class::SimdCvt                       0      0.00%     78.02% # Class of executed instruction
system.cpu3.op_class::SimdMisc                      0      0.00%     78.02% # Class of executed instruction
system.cpu3.op_class::SimdMult                      0      0.00%     78.02% # Class of executed instruction
system.cpu3.op_class::SimdMultAcc                   0      0.00%     78.02% # Class of executed instruction
system.cpu3.op_class::SimdShift                     0      0.00%     78.02% # Class of executed instruction
system.cpu3.op_class::SimdShiftAcc                  0      0.00%     78.02% # Class of executed instruction
system.cpu3.op_class::SimdSqrt                      0      0.00%     78.02% # Class of executed instruction
system.cpu3.op_class::SimdFloatAdd                  0      0.00%     78.02% # Class of executed instruction
system.cpu3.op_class::SimdFloatAlu                  0      0.00%     78.02% # Class of executed instruction
system.cpu3.op_class::SimdFloatCmp                  0      0.00%     78.02% # Class of executed instruction
system.cpu3.op_class::SimdFloatCvt                  0      0.00%     78.02% # Class of executed instruction
system.cpu3.op_class::SimdFloatDiv                  0      0.00%     78.02% # Class of executed instruction
system.cpu3.op_class::SimdFloatMisc                 0      0.00%     78.02% # Class of executed instruction
system.cpu3.op_class::SimdFloatMult                 0      0.00%     78.02% # Class of executed instruction
system.cpu3.op_class::SimdFloatMultAcc              0      0.00%     78.02% # Class of executed instruction
system.cpu3.op_class::SimdFloatSqrt                 0      0.00%     78.02% # Class of executed instruction
system.cpu3.op_class::MemRead                 1046236     13.75%     91.77% # Class of executed instruction
system.cpu3.op_class::MemWrite                 626023      8.23%    100.00% # Class of executed instruction
system.cpu3.op_class::IprAccess                     0      0.00%    100.00% # Class of executed instruction
system.cpu3.op_class::InstPrefetch                  0      0.00%    100.00% # Class of executed instruction
system.cpu3.op_class::total                   7609448                       # Class of executed instruction
system.iobus.trans_dist::ReadReq                  863                       # Transaction distribution
system.iobus.trans_dist::ReadResp                 863                       # Transaction distribution
system.iobus.trans_dist::WriteReq                4889                       # Transaction distribution
system.iobus.trans_dist::WriteResp               4889                       # Transaction distribution
system.iobus.trans_dist::MessageReq               110                       # Transaction distribution
system.iobus.trans_dist::MessageResp              110                       # Transaction distribution
system.iobus.pkt_count_system.pc.south_bridge.io_apic.int_master::system.ruby.l0_cntrl0.sequencer.pio-slave-port           52                       # Packet count per connected master and slave (bytes)
system.iobus.pkt_count_system.pc.south_bridge.io_apic.int_master::system.ruby.l0_cntrl1.sequencer.pio-slave-port           50                       # Packet count per connected master and slave (bytes)
system.iobus.pkt_count_system.pc.south_bridge.io_apic.int_master::system.ruby.l0_cntrl2.sequencer.pio-slave-port           50                       # Packet count per connected master and slave (bytes)
system.iobus.pkt_count_system.pc.south_bridge.io_apic.int_master::system.ruby.l0_cntrl3.sequencer.pio-slave-port           50                       # Packet count per connected master and slave (bytes)
system.iobus.pkt_count_system.pc.south_bridge.io_apic.int_master::total          202                       # Packet count per connected master and slave (bytes)
system.iobus.pkt_count_system.ruby.l0_cntrl0.sequencer.mem-master-port::system.pc.south_bridge.ide.pio         1048                       # Packet count per connected master and slave (bytes)
system.iobus.pkt_count_system.ruby.l0_cntrl0.sequencer.mem-master-port::system.pc.south_bridge.io_apic.pio            8                       # Packet count per connected master and slave (bytes)
system.iobus.pkt_count_system.ruby.l0_cntrl0.sequencer.mem-master-port::system.pc.com_1.pio            2                       # Packet count per connected master and slave (bytes)
system.iobus.pkt_count_system.ruby.l0_cntrl0.sequencer.mem-master-port::system.ruby.l0_cntrl0.sequencer.pio-slave-port         1698                       # Packet count per connected master and slave (bytes)
system.iobus.pkt_count_system.ruby.l0_cntrl0.sequencer.mem-master-port::system.ruby.l0_cntrl1.sequencer.pio-slave-port            2                       # Packet count per connected master and slave (bytes)
system.iobus.pkt_count_system.ruby.l0_cntrl0.sequencer.mem-master-port::total         2758                       # Packet count per connected master and slave (bytes)
system.iobus.pkt_count_system.ruby.l0_cntrl1.sequencer.mem-master-port::system.pc.south_bridge.ide.pio         1558                       # Packet count per connected master and slave (bytes)
system.iobus.pkt_count_system.ruby.l0_cntrl1.sequencer.mem-master-port::system.ruby.l0_cntrl0.sequencer.pio-slave-port            6                       # Packet count per connected master and slave (bytes)
system.iobus.pkt_count_system.ruby.l0_cntrl1.sequencer.mem-master-port::system.ruby.l0_cntrl1.sequencer.pio-slave-port         1708                       # Packet count per connected master and slave (bytes)
system.iobus.pkt_count_system.ruby.l0_cntrl1.sequencer.mem-master-port::system.ruby.l0_cntrl2.sequencer.pio-slave-port            2                       # Packet count per connected master and slave (bytes)
system.iobus.pkt_count_system.ruby.l0_cntrl1.sequencer.mem-master-port::total         3274                       # Packet count per connected master and slave (bytes)
system.iobus.pkt_count_system.ruby.l0_cntrl2.sequencer.mem-master-port::system.pc.south_bridge.ide.pio          934                       # Packet count per connected master and slave (bytes)
system.iobus.pkt_count_system.ruby.l0_cntrl2.sequencer.mem-master-port::system.pc.south_bridge.io_apic.pio            6                       # Packet count per connected master and slave (bytes)
system.iobus.pkt_count_system.ruby.l0_cntrl2.sequencer.mem-master-port::system.pc.com_1.pio          174                       # Packet count per connected master and slave (bytes)
system.iobus.pkt_count_system.ruby.l0_cntrl2.sequencer.mem-master-port::system.ruby.l0_cntrl2.sequencer.pio-slave-port         1690                       # Packet count per connected master and slave (bytes)
system.iobus.pkt_count_system.ruby.l0_cntrl2.sequencer.mem-master-port::system.ruby.l0_cntrl3.sequencer.pio-slave-port            2                       # Packet count per connected master and slave (bytes)
system.iobus.pkt_count_system.ruby.l0_cntrl2.sequencer.mem-master-port::total         2806                       # Packet count per connected master and slave (bytes)
system.iobus.pkt_count_system.ruby.l0_cntrl3.sequencer.mem-master-port::system.pc.south_bridge.ide.pio          968                       # Packet count per connected master and slave (bytes)
system.iobus.pkt_count_system.ruby.l0_cntrl3.sequencer.mem-master-port::system.pc.south_bridge.io_apic.pio            8                       # Packet count per connected master and slave (bytes)
system.iobus.pkt_count_system.ruby.l0_cntrl3.sequencer.mem-master-port::system.ruby.l0_cntrl0.sequencer.pio-slave-port            2                       # Packet count per connected master and slave (bytes)
system.iobus.pkt_count_system.ruby.l0_cntrl3.sequencer.mem-master-port::system.ruby.l0_cntrl1.sequencer.pio-slave-port            2                       # Packet count per connected master and slave (bytes)
system.iobus.pkt_count_system.ruby.l0_cntrl3.sequencer.mem-master-port::system.ruby.l0_cntrl2.sequencer.pio-slave-port            2                       # Packet count per connected master and slave (bytes)
system.iobus.pkt_count_system.ruby.l0_cntrl3.sequencer.mem-master-port::system.ruby.l0_cntrl3.sequencer.pio-slave-port         1702                       # Packet count per connected master and slave (bytes)
system.iobus.pkt_count_system.ruby.l0_cntrl3.sequencer.mem-master-port::total         2684                       # Packet count per connected master and slave (bytes)
system.iobus.pkt_count::total                   11724                       # Packet count per connected master and slave (bytes)
system.iobus.pkt_size_system.pc.south_bridge.io_apic.int_master::system.ruby.l0_cntrl0.sequencer.pio-slave-port          104                       # Cumulative packet size per connected master and slave (bytes)
system.iobus.pkt_size_system.pc.south_bridge.io_apic.int_master::system.ruby.l0_cntrl1.sequencer.pio-slave-port          100                       # Cumulative packet size per connected master and slave (bytes)
system.iobus.pkt_size_system.pc.south_bridge.io_apic.int_master::system.ruby.l0_cntrl2.sequencer.pio-slave-port          100                       # Cumulative packet size per connected master and slave (bytes)
system.iobus.pkt_size_system.pc.south_bridge.io_apic.int_master::system.ruby.l0_cntrl3.sequencer.pio-slave-port          100                       # Cumulative packet size per connected master and slave (bytes)
system.iobus.pkt_size_system.pc.south_bridge.io_apic.int_master::total          404                       # Cumulative packet size per connected master and slave (bytes)
system.iobus.pkt_size_system.ruby.l0_cntrl0.sequencer.mem-master-port::system.pc.south_bridge.ide.pio          590                       # Cumulative packet size per connected master and slave (bytes)
system.iobus.pkt_size_system.ruby.l0_cntrl0.sequencer.mem-master-port::system.pc.south_bridge.io_apic.pio           16                       # Cumulative packet size per connected master and slave (bytes)
system.iobus.pkt_size_system.ruby.l0_cntrl0.sequencer.mem-master-port::system.pc.com_1.pio            1                       # Cumulative packet size per connected master and slave (bytes)
system.iobus.pkt_size_system.ruby.l0_cntrl0.sequencer.mem-master-port::system.ruby.l0_cntrl0.sequencer.pio-slave-port         3396                       # Cumulative packet size per connected master and slave (bytes)
system.iobus.pkt_size_system.ruby.l0_cntrl0.sequencer.mem-master-port::system.ruby.l0_cntrl1.sequencer.pio-slave-port            4                       # Cumulative packet size per connected master and slave (bytes)
system.iobus.pkt_size_system.ruby.l0_cntrl0.sequencer.mem-master-port::total         4007                       # Cumulative packet size per connected master and slave (bytes)
system.iobus.pkt_size_system.ruby.l0_cntrl1.sequencer.mem-master-port::system.pc.south_bridge.ide.pio          890                       # Cumulative packet size per connected master and slave (bytes)
system.iobus.pkt_size_system.ruby.l0_cntrl1.sequencer.mem-master-port::system.ruby.l0_cntrl0.sequencer.pio-slave-port           12                       # Cumulative packet size per connected master and slave (bytes)
system.iobus.pkt_size_system.ruby.l0_cntrl1.sequencer.mem-master-port::system.ruby.l0_cntrl1.sequencer.pio-slave-port         3416                       # Cumulative packet size per connected master and slave (bytes)
system.iobus.pkt_size_system.ruby.l0_cntrl1.sequencer.mem-master-port::system.ruby.l0_cntrl2.sequencer.pio-slave-port            4                       # Cumulative packet size per connected master and slave (bytes)
system.iobus.pkt_size_system.ruby.l0_cntrl1.sequencer.mem-master-port::total         4322                       # Cumulative packet size per connected master and slave (bytes)
system.iobus.pkt_size_system.ruby.l0_cntrl2.sequencer.mem-master-port::system.pc.south_bridge.ide.pio          524                       # Cumulative packet size per connected master and slave (bytes)
system.iobus.pkt_size_system.ruby.l0_cntrl2.sequencer.mem-master-port::system.pc.south_bridge.io_apic.pio           12                       # Cumulative packet size per connected master and slave (bytes)
system.iobus.pkt_size_system.ruby.l0_cntrl2.sequencer.mem-master-port::system.pc.com_1.pio           87                       # Cumulative packet size per connected master and slave (bytes)
system.iobus.pkt_size_system.ruby.l0_cntrl2.sequencer.mem-master-port::system.ruby.l0_cntrl2.sequencer.pio-slave-port         3380                       # Cumulative packet size per connected master and slave (bytes)
system.iobus.pkt_size_system.ruby.l0_cntrl2.sequencer.mem-master-port::system.ruby.l0_cntrl3.sequencer.pio-slave-port            4                       # Cumulative packet size per connected master and slave (bytes)
system.iobus.pkt_size_system.ruby.l0_cntrl2.sequencer.mem-master-port::total         4007                       # Cumulative packet size per connected master and slave (bytes)
system.iobus.pkt_size_system.ruby.l0_cntrl3.sequencer.mem-master-port::system.pc.south_bridge.ide.pio          544                       # Cumulative packet size per connected master and slave (bytes)
system.iobus.pkt_size_system.ruby.l0_cntrl3.sequencer.mem-master-port::system.pc.south_bridge.io_apic.pio           16                       # Cumulative packet size per connected master and slave (bytes)
system.iobus.pkt_size_system.ruby.l0_cntrl3.sequencer.mem-master-port::system.ruby.l0_cntrl0.sequencer.pio-slave-port            4                       # Cumulative packet size per connected master and slave (bytes)
system.iobus.pkt_size_system.ruby.l0_cntrl3.sequencer.mem-master-port::system.ruby.l0_cntrl1.sequencer.pio-slave-port            4                       # Cumulative packet size per connected master and slave (bytes)
system.iobus.pkt_size_system.ruby.l0_cntrl3.sequencer.mem-master-port::system.ruby.l0_cntrl2.sequencer.pio-slave-port            4                       # Cumulative packet size per connected master and slave (bytes)
system.iobus.pkt_size_system.ruby.l0_cntrl3.sequencer.mem-master-port::system.ruby.l0_cntrl3.sequencer.pio-slave-port         3404                       # Cumulative packet size per connected master and slave (bytes)
system.iobus.pkt_size_system.ruby.l0_cntrl3.sequencer.mem-master-port::total         3976                       # Cumulative packet size per connected master and slave (bytes)
system.iobus.pkt_size::total                    16716                       # Cumulative packet size per connected master and slave (bytes)
system.iobus.reqLayer2.occupancy              3896500                       # Layer occupancy (ticks)
system.iobus.reqLayer2.utilization                0.0                       # Layer utilization (%)
system.iobus.reqLayer8.occupancy                20997                       # Layer occupancy (ticks)
system.iobus.reqLayer8.utilization                0.0                       # Layer utilization (%)
system.iobus.reqLayer12.occupancy              112500                       # Layer occupancy (ticks)
system.iobus.reqLayer12.utilization               0.0                       # Layer utilization (%)
system.iobus.reqLayer17.occupancy             2189474                       # Layer occupancy (ticks)
system.iobus.reqLayer17.utilization               0.0                       # Layer utilization (%)
system.iobus.reqLayer18.occupancy             2372682                       # Layer occupancy (ticks)
system.iobus.reqLayer18.utilization               0.0                       # Layer utilization (%)
system.iobus.reqLayer19.occupancy             2174976                       # Layer occupancy (ticks)
system.iobus.reqLayer19.utilization               0.0                       # Layer utilization (%)
system.iobus.reqLayer20.occupancy             2179474                       # Layer occupancy (ticks)
system.iobus.reqLayer20.utilization               0.0                       # Layer utilization (%)
system.iobus.respLayer0.occupancy              177902                       # Layer occupancy (ticks)
system.iobus.respLayer0.utilization               0.0                       # Layer utilization (%)
system.iobus.respLayer2.occupancy             1994500                       # Layer occupancy (ticks)
system.iobus.respLayer2.utilization               0.0                       # Layer utilization (%)
system.iobus.respLayer4.occupancy             2316000                       # Layer occupancy (ticks)
system.iobus.respLayer4.utilization               0.0                       # Layer utilization (%)
system.iobus.respLayer6.occupancy             2065000                       # Layer occupancy (ticks)
system.iobus.respLayer6.utilization               0.0                       # Layer utilization (%)
system.iobus.respLayer8.occupancy             1948500                       # Layer occupancy (ticks)
system.iobus.respLayer8.utilization               0.0                       # Layer utilization (%)
system.pc.south_bridge.ide.disks.dma_read_full_pages         1522                       # Number of full page size DMA reads (not PRD).
system.pc.south_bridge.ide.disks.dma_read_bytes      6234112                       # Number of bytes transfered via DMA reads (not PRD).
system.pc.south_bridge.ide.disks.dma_read_txs         1522                       # Number of DMA read transactions (not PRD).
system.pc.south_bridge.ide.disks.dma_write_full_pages           45                       # Number of full page size DMA writes.
system.pc.south_bridge.ide.disks.dma_write_bytes       184320                       # Number of bytes transfered via DMA writes.
system.pc.south_bridge.ide.disks.dma_write_txs           45                       # Number of DMA write transactions.
system.ruby.clk_domain.clock                      500                       # Clock period in ticks
system.ruby.delayHist::bucket_size                  4                       # delay histogram for all message
system.ruby.delayHist::max_bucket                  39                       # delay histogram for all message
system.ruby.delayHist::samples              204904474                       # delay histogram for all message
system.ruby.delayHist::mean                  0.032874                       # delay histogram for all message
system.ruby.delayHist::stdev                 0.511626                       # delay histogram for all message
system.ruby.delayHist                    |   204063640     99.59%     99.59% |        1768      0.00%     99.59% |      838791      0.41%    100.00% |          97      0.00%    100.00% |         153      0.00%    100.00% |           6      0.00%    100.00% |          19      0.00%    100.00% |           0      0.00%    100.00% |           0      0.00%    100.00% |           0      0.00%    100.00% # delay histogram for all message
system.ruby.delayHist::total                204904474                       # delay histogram for all message
system.ruby.outstanding_req_hist_seqr::bucket_size            1                      
system.ruby.outstanding_req_hist_seqr::max_bucket            9                      
system.ruby.outstanding_req_hist_seqr::samples   2883463034                      
system.ruby.outstanding_req_hist_seqr::mean     1.000000                      
system.ruby.outstanding_req_hist_seqr::gmean     1.000000                      
system.ruby.outstanding_req_hist_seqr::stdev     0.000262                      
system.ruby.outstanding_req_hist_seqr    |           0      0.00%      0.00% |  2883462836    100.00%    100.00% |         198      0.00%    100.00% |           0      0.00%    100.00% |           0      0.00%    100.00% |           0      0.00%    100.00% |           0      0.00%    100.00% |           0      0.00%    100.00% |           0      0.00%    100.00% |           0      0.00%    100.00%
system.ruby.outstanding_req_hist_seqr::total   2883463034                      
system.ruby.latency_hist_seqr::bucket_size          128                      
system.ruby.latency_hist_seqr::max_bucket         1279                      
system.ruby.latency_hist_seqr::samples     2883463034                      
system.ruby.latency_hist_seqr::mean          1.273376                      
system.ruby.latency_hist_seqr::gmean         1.092902                      
system.ruby.latency_hist_seqr::stdev         1.685823                      
[...]
system.ruby.L1Cache_Controller.Data_Exclusive::total     10438018                      
system.ruby.L1Cache_Controller.DataS_fromL1 |        9203     28.87%     28.87% |        3660     11.48%     40.36% |        6735     21.13%     61.49% |       12275     38.51%    100.00%
system.ruby.L1Cache_Controller.DataS_fromL1::total        31873                      
system.ruby.L1Cache_Controller.Data_all_Acks |       39463      4.28%      4.28% |      782044     84.79%     89.07% |       46489      5.04%     94.11% |       54287      5.89%    100.00%
system.ruby.L1Cache_Controller.Data_all_Acks::total       922283                      
system.ruby.L1Cache_Controller.L0_Ack    |       34550      4.88%      4.88% |      591852     83.53%     88.40% |       38890      5.49%     93.89% |       43300      6.11%    100.00%
system.ruby.L1Cache_Controller.L0_Ack::total       708592                      
system.ruby.L1Cache_Controller.Ack       |       21453     45.04%     45.04% |        9157     19.22%     64.26% |        7989     16.77%     81.03% |        9036     18.97%    100.00%
system.ruby.L1Cache_Controller.Ack::total        47635                      
system.ruby.L1Cache_Controller.Ack_all   |        9929     37.99%     37.99% |        5255     20.10%     58.09% |        4898     18.74%     76.83% |        6056     23.17%    100.00%
system.ruby.L1Cache_Controller.Ack_all::total        26138                      
system.ruby.L1Cache_Controller.WB_Ack    |       38358      0.35%      0.35% |    10843812     98.22%     98.57% |       54538      0.49%     99.06% |      103226      0.94%    100.00%
system.ruby.L1Cache_Controller.WB_Ack::total     11039934                      
system.ruby.L1Cache_Controller.I.Load    |       64156      0.60%      0.60% |    10497662     97.42%     98.01% |       84639      0.79%     98.80% |      129376      1.20%    100.00%
system.ruby.L1Cache_Controller.I.Load::total     10775833                      
system.ruby.L1Cache_Controller.I.Store   |       13536      2.19%      2.19% |      567495     91.86%     94.05% |       14152      2.29%     96.34% |       22622      3.66%    100.00%
system.ruby.L1Cache_Controller.I.Store::total       617805                      
system.ruby.L1Cache_Controller.I.Inv     |        2985     18.67%     18.67% |        6926     43.31%     61.98% |        2092     13.08%     75.07% |        3987     24.93%    100.00%
system.ruby.L1Cache_Controller.I.Inv::total        15990                      
system.ruby.L1Cache_Controller.S.Load    |      280014     10.86%     10.86% |     1706081     66.14%     77.00% |      291482     11.30%     88.30% |      301875     11.70%    100.00%
system.ruby.L1Cache_Controller.S.Load::total      2579452                      
system.ruby.L1Cache_Controller.S.Store   |        6592     36.47%     36.47% |        4220     23.35%     59.82% |        3147     17.41%     77.24% |        4114     22.76%    100.00%
system.ruby.L1Cache_Controller.S.Store::total        18073                      
system.ruby.L1Cache_Controller.S.L0_Invalidate_Own |       23740      8.15%      8.15% |      213510     73.31%     81.46% |       25632      8.80%     90.26% |       28367      9.74%    100.00%
system.ruby.L1Cache_Controller.S.L0_Invalidate_Own::total       291249                      
system.ruby.L1Cache_Controller.S.L0_Invalidate_Else |        9458     25.01%     25.01% |        2200      5.82%     30.83% |       12476     32.99%     63.82% |       13682     36.18%    100.00%
system.ruby.L1Cache_Controller.S.L0_Invalidate_Else::total        37816                      
system.ruby.L1Cache_Controller.SS.Load   |        4436     46.76%     46.76% |         955     10.07%     56.83% |        1917     20.21%     77.03% |        2179     22.97%    100.00%
system.ruby.L1Cache_Controller.SS.Load::total         9487                      
system.ruby.L1Cache_Controller.SS.Store  |        3195     48.40%     48.40% |         152      2.30%     50.70% |        1648     24.97%     75.67% |        1606     24.33%    100.00%
system.ruby.L1Cache_Controller.SS.Store::total         6601                      
system.ruby.L1Cache_Controller.SS.Inv    |       12059     24.88%     24.88% |        4010      8.27%     33.16% |       15956     32.92%     66.08% |       16441     33.92%    100.00%
system.ruby.L1Cache_Controller.SS.Inv::total        48466                      
system.ruby.L1Cache_Controller.SS.L1_Replacement |       24882      8.39%      8.39% |      215518     72.66%     81.05% |       26389      8.90%     89.95% |       29819     10.05%    100.00%
system.ruby.L1Cache_Controller.SS.L1_Replacement::total       296608                      
system.ruby.L1Cache_Controller.E.WriteBack |       28674      0.27%      0.27% |    10272991     98.48%     98.76% |       45216      0.43%     99.19% |       84638      0.81%    100.00%
system.ruby.L1Cache_Controller.E.WriteBack::total     10431519                      
system.ruby.L1Cache_Controller.E.L0_Invalidate_Own |          64      1.08%      1.08% |        5415     91.32%     92.39% |         122      2.06%     94.45% |         329      5.55%    100.00%
system.ruby.L1Cache_Controller.E.L0_Invalidate_Own::total         5930                      
system.ruby.L1Cache_Controller.E.L0_Invalidate_Else |         128     21.96%     21.96% |         163     27.96%     49.91% |         133     22.81%     72.73% |         159     27.27%    100.00%
system.ruby.L1Cache_Controller.E.L0_Invalidate_Else::total          583                      
system.ruby.L1Cache_Controller.EE.Inv    |           3     11.11%     11.11% |          10     37.04%     48.15% |          12     44.44%     92.59% |           2      7.41%    100.00%
system.ruby.L1Cache_Controller.EE.Inv::total           27                      
system.ruby.L1Cache_Controller.EE.L1_Replacement |          64      1.08%      1.08% |        5414     91.34%     92.42% |         120      2.02%     94.45% |         329      5.55%    100.00%
system.ruby.L1Cache_Controller.EE.L1_Replacement::total         5927                      
system.ruby.L1Cache_Controller.EE.Fwd_GETX |           5     31.25%     31.25% |           4     25.00%     56.25% |           2     12.50%     68.75% |           5     31.25%    100.00%
system.ruby.L1Cache_Controller.EE.Fwd_GETX::total           16                      
system.ruby.L1Cache_Controller.EE.Fwd_GETS |          83     20.19%     20.19% |         124     30.17%     50.36% |          84     20.44%     70.80% |         120     29.20%    100.00%
system.ruby.L1Cache_Controller.EE.Fwd_GETS::total          411                      
system.ruby.L1Cache_Controller.M.WriteBack |      209162      0.15%      0.15% |   135289727     99.32%     99.48% |      186957      0.14%     99.61% |      524723      0.39%    100.00%
system.ruby.L1Cache_Controller.M.WriteBack::total    136210569                      
system.ruby.L1Cache_Controller.M.L0_Invalidate_Own |         614      0.16%      0.16% |      380776     99.34%     99.50% |         871      0.23%     99.73% |        1041      0.27%    100.00%
system.ruby.L1Cache_Controller.M.L0_Invalidate_Own::total       383302                      
system.ruby.L1Cache_Controller.M.L0_Invalidate_Else |        4383     39.37%     39.37% |        1789     16.07%     55.44% |        2274     20.43%     75.86% |        2687     24.14%    100.00%
system.ruby.L1Cache_Controller.M.L0_Invalidate_Else::total        11133                      
system.ruby.L1Cache_Controller.MM.Load   |      142179      0.12%      0.12% |   121675920     99.45%     99.57% |      120013      0.10%     99.67% |      405725      0.33%    100.00%
system.ruby.L1Cache_Controller.MM.Load::total    122343837                      
system.ruby.L1Cache_Controller.MM.Store  |       48668      0.36%      0.36% |    13424491     98.57%     98.93% |       51156      0.38%     99.31% |       94365      0.69%    100.00%
system.ruby.L1Cache_Controller.MM.Store::total     13618680                      
system.ruby.L1Cache_Controller.MM.Inv    |         821     30.77%     30.77% |         489     18.33%     49.10% |         722     27.06%     76.16% |         636     23.84%    100.00%
system.ruby.L1Cache_Controller.MM.Inv::total         2668                      
system.ruby.L1Cache_Controller.MM.L1_Replacement |       38294      0.35%      0.35% |    10838398     98.23%     98.57% |       54418      0.49%     99.07% |      102897      0.93%    100.00%
system.ruby.L1Cache_Controller.MM.L1_Replacement::total     11034007                      
system.ruby.L1Cache_Controller.MM.Fwd_GETX |        1397     23.44%     23.44% |        1345     22.56%     46.00% |        1169     19.61%     65.61% |        2050     34.39%    100.00%
system.ruby.L1Cache_Controller.MM.Fwd_GETX::total         5961                      
system.ruby.L1Cache_Controller.MM.Fwd_GETS |       11013     35.00%     35.00% |        4834     15.36%     50.37% |        7701     24.48%     74.85% |        7914     25.15%    100.00%
system.ruby.L1Cache_Controller.MM.Fwd_GETS::total        31462                      
system.ruby.L1Cache_Controller.IS.Data_Exclusive |       28884      0.28%      0.28% |    10278570     98.47%     98.75% |       45464      0.44%     99.18% |       85100      0.82%    100.00%
system.ruby.L1Cache_Controller.IS.Data_Exclusive::total     10438018                      
system.ruby.L1Cache_Controller.IS.DataS_fromL1 |        9203     28.87%     28.87% |        3660     11.48%     40.36% |        6735     21.13%     61.49% |       12275     38.51%    100.00%
system.ruby.L1Cache_Controller.IS.DataS_fromL1::total        31873                      
system.ruby.L1Cache_Controller.IS.Data_all_Acks |       26069      8.52%      8.52% |      215432     70.42%     78.94% |       32440     10.60%     89.54% |       32001     10.46%    100.00%
system.ruby.L1Cache_Controller.IS.Data_all_Acks::total       305942                      
system.ruby.L1Cache_Controller.IM.Data   |         143      9.76%      9.76% |         883     60.27%     70.03% |         103      7.03%     77.06% |         336     22.94%    100.00%
system.ruby.L1Cache_Controller.IM.Data::total         1465                      
system.ruby.L1Cache_Controller.IM.Data_all_Acks |       13394      2.17%      2.17% |      566612     91.93%     94.10% |       14049      2.28%     96.38% |       22286      3.62%    100.00%
system.ruby.L1Cache_Controller.IM.Data_all_Acks::total       616341                      
system.ruby.L1Cache_Controller.SM.Inv    |           1    100.00%    100.00% |           0      0.00%    100.00% |           0      0.00%    100.00% |           0      0.00%    100.00%
system.ruby.L1Cache_Controller.SM.Inv::total            1                      
system.ruby.L1Cache_Controller.SM.Ack    |       21453     45.04%     45.04% |        9157     19.22%     64.26% |        7989     16.77%     81.03% |        9036     18.97%    100.00%
system.ruby.L1Cache_Controller.SM.Ack::total        47635                      
system.ruby.L1Cache_Controller.SM.Ack_all |        9929     37.99%     37.99% |        5255     20.10%     58.09% |        4898     18.74%     76.83% |        6056     23.17%    100.00%
system.ruby.L1Cache_Controller.SM.Ack_all::total        26138                      
system.ruby.L1Cache_Controller.M_I.WB_Ack |       38358      0.35%      0.35% |    10843812     98.22%     98.57% |       54538      0.49%     99.06% |      103226      0.94%    100.00%
system.ruby.L1Cache_Controller.M_I.WB_Ack::total     11039934                      
system.ruby.L1Cache_Controller.S_IL0.L0_Invalidate_Own |       23740      8.15%      8.15% |      213510     73.31%     81.46% |       25632      8.80%     90.26% |       28367      9.74%    100.00%
system.ruby.L1Cache_Controller.S_IL0.L0_Invalidate_Own::total       291249                      
system.ruby.L1Cache_Controller.S_IL0.L0_Invalidate_Else |        9458     25.01%     25.01% |        2200      5.82%     30.83% |       12476     32.99%     63.82% |       13682     36.18%    100.00%
system.ruby.L1Cache_Controller.S_IL0.L0_Invalidate_Else::total        37816                      
system.ruby.L1Cache_Controller.S_IL0.L0_Ack |       33198     10.09%     10.09% |      215710     65.55%     75.64% |       38108     11.58%     87.22% |       42049     12.78%    100.00%
system.ruby.L1Cache_Controller.S_IL0.L0_Ack::total       329065                      
system.ruby.L1Cache_Controller.E_IL0.L0_DataAck |          37     28.03%     28.03% |          26     19.70%     47.73% |          37     28.03%     75.76% |          32     24.24%    100.00%
system.ruby.L1Cache_Controller.E_IL0.L0_DataAck::total          132                      
system.ruby.L1Cache_Controller.E_IL0.L0_Invalidate_Own |          64      1.08%      1.08% |        5415     91.32%     92.39% |         122      2.06%     94.45% |         329      5.55%    100.00%
system.ruby.L1Cache_Controller.E_IL0.L0_Invalidate_Own::total         5930                      
system.ruby.L1Cache_Controller.E_IL0.L0_Invalidate_Else |         128     21.96%     21.96% |         163     27.96%     49.91% |         133     22.81%     72.73% |         159     27.27%    100.00%
system.ruby.L1Cache_Controller.E_IL0.L0_Invalidate_Else::total          583                      
system.ruby.L1Cache_Controller.E_IL0.L0_Ack |         155      2.43%      2.43% |        5552     87.01%     89.44% |         218      3.42%     92.85% |         456      7.15%    100.00%
system.ruby.L1Cache_Controller.E_IL0.L0_Ack::total         6381                      
system.ruby.L1Cache_Controller.M_IL0.L0_DataAck |        3800     17.85%     17.85% |       11975     56.25%     74.10% |        2581     12.12%     86.22% |        2933     13.78%    100.00%
system.ruby.L1Cache_Controller.M_IL0.L0_DataAck::total        21289                      
system.ruby.L1Cache_Controller.M_IL0.L0_Invalidate_Own |         614      0.16%      0.16% |      380776     99.34%     99.50% |         871      0.23%     99.73% |        1041      0.27%    100.00%
system.ruby.L1Cache_Controller.M_IL0.L0_Invalidate_Own::total       383302                      
system.ruby.L1Cache_Controller.M_IL0.L0_Invalidate_Else |        4383     39.37%     39.37% |        1789     16.07%     55.44% |        2274     20.43%     75.86% |        2687     24.14%    100.00%
system.ruby.L1Cache_Controller.M_IL0.L0_Invalidate_Else::total        11133                      
system.ruby.L1Cache_Controller.M_IL0.L0_Ack |        1197      0.32%      0.32% |      370590     99.32%     99.64% |         564      0.15%     99.79% |         795      0.21%    100.00%
system.ruby.L1Cache_Controller.M_IL0.L0_Ack::total       373146                      
system.ruby.L2Cache_Controller.L1_GETS       10776227      0.00%      0.00%
system.ruby.L2Cache_Controller.L1_GETX         617813      0.00%      0.00%
system.ruby.L2Cache_Controller.L1_UPGRADE        24674      0.00%      0.00%
system.ruby.L2Cache_Controller.L1_PUTX       11039934      0.00%      0.00%
system.ruby.L2Cache_Controller.L2_Replacement        38114      0.00%      0.00%
system.ruby.L2Cache_Controller.L2_Replacement_clean        89416      0.00%      0.00%
system.ruby.L2Cache_Controller.Mem_Data        144620      0.00%      0.00%
system.ruby.L2Cache_Controller.Mem_Ack         128352      0.00%      0.00%
system.ruby.L2Cache_Controller.WB_Data          24807      0.00%      0.00%
system.ruby.L2Cache_Controller.WB_Data_clean         9734      0.00%      0.00%
system.ruby.L2Cache_Controller.Ack              10063      0.00%      0.00%
system.ruby.L2Cache_Controller.Ack_all           5321      0.00%      0.00%
system.ruby.L2Cache_Controller.Unblock          31873      0.00%      0.00%
system.ruby.L2Cache_Controller.Exclusive_Unblock     11080497      0.00%      0.00%
system.ruby.L2Cache_Controller.MEM_Inv           1644      0.00%      0.00%
system.ruby.L2Cache_Controller.NP.L1_GETS       118055      0.00%      0.00%
system.ruby.L2Cache_Controller.NP.L1_GETX        26565      0.00%      0.00%
system.ruby.L2Cache_Controller.SS.L1_GETS       305942      0.00%      0.00%
system.ruby.L2Cache_Controller.SS.L1_GETX         1465      0.00%      0.00%
system.ruby.L2Cache_Controller.SS.L1_UPGRADE        24673      0.00%      0.00%
system.ruby.L2Cache_Controller.SS.L2_Replacement          814      0.00%      0.00%
system.ruby.L2Cache_Controller.SS.L2_Replacement_clean         4358      0.00%      0.00%
system.ruby.L2Cache_Controller.SS.MEM_Inv          122      0.00%      0.00%
system.ruby.L2Cache_Controller.M.L1_GETS     10319963      0.00%      0.00%
system.ruby.L2Cache_Controller.M.L1_GETX       583799      0.00%      0.00%
system.ruby.L2Cache_Controller.M.L2_Replacement        36310      0.00%      0.00%
system.ruby.L2Cache_Controller.M.L2_Replacement_clean        83522      0.00%      0.00%
system.ruby.L2Cache_Controller.M.MEM_Inv          531      0.00%      0.00%
system.ruby.L2Cache_Controller.MT.L1_GETS        31873      0.00%      0.00%
system.ruby.L2Cache_Controller.MT.L1_GETX         5977      0.00%      0.00%
system.ruby.L2Cache_Controller.MT.L1_PUTX     11039934      0.00%      0.00%
system.ruby.L2Cache_Controller.MT.L2_Replacement          990      0.00%      0.00%
system.ruby.L2Cache_Controller.MT.L2_Replacement_clean         1536      0.00%      0.00%
system.ruby.L2Cache_Controller.MT.MEM_Inv          169      0.00%      0.00%
system.ruby.L2Cache_Controller.M_I.L1_GETS            1      0.00%      0.00%
system.ruby.L2Cache_Controller.M_I.Mem_Ack       128352      0.00%      0.00%
system.ruby.L2Cache_Controller.M_I.MEM_Inv          531      0.00%      0.00%
system.ruby.L2Cache_Controller.MT_I.WB_Data         1018      0.00%      0.00%
system.ruby.L2Cache_Controller.MT_I.WB_Data_clean          136      0.00%      0.00%
system.ruby.L2Cache_Controller.MT_I.Ack_all            5      0.00%      0.00%
system.ruby.L2Cache_Controller.MT_I.MEM_Inv          169      0.00%      0.00%
system.ruby.L2Cache_Controller.MCT_I.WB_Data          684      0.00%      0.00%
system.ruby.L2Cache_Controller.MCT_I.WB_Data_clean          830      0.00%      0.00%
system.ruby.L2Cache_Controller.MCT_I.Ack_all           22      0.00%      0.00%
system.ruby.L2Cache_Controller.I_I.Ack           8936      0.00%      0.00%
system.ruby.L2Cache_Controller.I_I.Ack_all         4358      0.00%      0.00%
system.ruby.L2Cache_Controller.S_I.Ack           1127      0.00%      0.00%
system.ruby.L2Cache_Controller.S_I.Ack_all          936      0.00%      0.00%
system.ruby.L2Cache_Controller.S_I.MEM_Inv          122      0.00%      0.00%
system.ruby.L2Cache_Controller.ISS.Mem_Data       118055      0.00%      0.00%
system.ruby.L2Cache_Controller.IM.Mem_Data        26565      0.00%      0.00%
system.ruby.L2Cache_Controller.SS_MB.L1_GETS           72      0.00%      0.00%
system.ruby.L2Cache_Controller.SS_MB.L1_GETX            2      0.00%      0.00%
system.ruby.L2Cache_Controller.SS_MB.L1_UPGRADE            1      0.00%      0.00%
system.ruby.L2Cache_Controller.SS_MB.Exclusive_Unblock        26138      0.00%      0.00%
system.ruby.L2Cache_Controller.MT_MB.L1_GETS          311      0.00%      0.00%
system.ruby.L2Cache_Controller.MT_MB.L1_GETX            5      0.00%      0.00%
system.ruby.L2Cache_Controller.MT_MB.Exclusive_Unblock     11054359      0.00%      0.00%
system.ruby.L2Cache_Controller.MT_IIB.L1_GETS           10      0.00%      0.00%
system.ruby.L2Cache_Controller.MT_IIB.WB_Data        23097      0.00%      0.00%
system.ruby.L2Cache_Controller.MT_IIB.WB_Data_clean         8751      0.00%      0.00%
system.ruby.L2Cache_Controller.MT_IIB.Unblock           25      0.00%      0.00%
system.ruby.L2Cache_Controller.MT_IB.WB_Data            8      0.00%      0.00%
system.ruby.L2Cache_Controller.MT_IB.WB_Data_clean           17      0.00%      0.00%
system.ruby.L2Cache_Controller.MT_SB.Unblock        31848      0.00%      0.00%

---------- End Simulation Statistics   ----------
