
---------- Begin Simulation Statistics ----------
sim_seconds                                  3.872504                       # Number of seconds simulated
sim_ticks                                3872504240000                       # Number of ticks simulated
final_tick                               55111425671001                       # Number of ticks from beginning of simulation (restored from checkpoints and never reset)
sim_freq                                 1000000000000                       # Frequency of simulated ticks
host_inst_rate                                 137315                       # Simulator instruction rate (inst/s)
host_op_rate                                   233875                       # Simulator op (including micro ops) rate (op/s)
host_tick_rate                              263063815                       # Simulator tick rate (ticks/s)
host_mem_usage                                1870716                       # Number of bytes of host memory used
host_seconds                                 14720.78                       # Real time elapsed on the host
sim_insts                                  2021385869                       # Number of instructions simulated
sim_ops                                    3442815477                       # Number of ops (including micro ops) simulated
system.voltage_domain.voltage                       1                       # Voltage in Volts
system.clk_domain.clock                          1000                       # Clock period in ticks
system.mem_ctrls.bytes_read::ruby.dir_cntrl0      1252096                       # Number of bytes read from this memory
system.mem_ctrls.bytes_read::total            1252096                       # Number of bytes read from this memory
system.mem_ctrls.bytes_written::ruby.dir_cntrl0       377728                       # Number of bytes written to this memory
system.mem_ctrls.bytes_written::total          377728                       # Number of bytes written to this memory
system.mem_ctrls.num_reads::ruby.dir_cntrl0        19564                       # Number of read requests responded to by this memory
system.mem_ctrls.num_reads::total               19564                       # Number of read requests responded to by this memory
system.mem_ctrls.num_writes::ruby.dir_cntrl0         5902                       # Number of write requests responded to by this memory
system.mem_ctrls.num_writes::total               5902                       # Number of write requests responded to by this memory
system.mem_ctrls.bw_read::ruby.dir_cntrl0       323330                       # Total read bandwidth from this memory (bytes/s)
system.mem_ctrls.bw_read::total                323330                       # Total read bandwidth from this memory (bytes/s)
system.mem_ctrls.bw_write::ruby.dir_cntrl0        97541                       # Write bandwidth from this memory (bytes/s)
system.mem_ctrls.bw_write::total                97541                       # Write bandwidth from this memory (bytes/s)
system.mem_ctrls.bw_total::ruby.dir_cntrl0       420871                       # Total bandwidth to/from this memory (bytes/s)
system.mem_ctrls.bw_total::total               420871                       # Total bandwidth to/from this memory (bytes/s)
system.mem_ctrls.readReqs                       19564                       # Number of read requests accepted
system.mem_ctrls.writeReqs                       5902                       # Number of write requests accepted
system.mem_ctrls.readBursts                     19564                       # Number of DRAM read bursts, including those serviced by the write queue
system.mem_ctrls.writeBursts                     5902                       # Number of DRAM write bursts, including those merged in the write queue
system.mem_ctrls.bytesReadDRAM                1248320                       # Total number of bytes read from DRAM
system.mem_ctrls.bytesReadWrQ                    3776                       # Total number of bytes read from write queue
system.mem_ctrls.bytesWritten                  377664                       # Total number of bytes written to DRAM
system.mem_ctrls.bytesReadSys                 1252096                       # Total read bytes from the system interface side
system.mem_ctrls.bytesWrittenSys               377728                       # Total written bytes from the system interface side
system.mem_ctrls.servicedByWrQ                     59                       # Number of DRAM read bursts serviced by the write queue
system.mem_ctrls.mergedWrBursts                     2                       # Number of DRAM write bursts merged with an existing one
system.mem_ctrls.neitherReadNorWriteReqs            0                       # Number of requests that are neither read nor write
system.mem_ctrls.perBankRdBursts::0              1279                       # Per bank write bursts
system.mem_ctrls.perBankRdBursts::1              1542                       # Per bank write bursts
system.mem_ctrls.perBankRdBursts::2              1496                       # Per bank write bursts
system.mem_ctrls.perBankRdBursts::3              1219                       # Per bank write bursts
system.mem_ctrls.perBankRdBursts::4              1538                       # Per bank write bursts
system.mem_ctrls.perBankRdBursts::5               862                       # Per bank write bursts
system.mem_ctrls.perBankRdBursts::6               887                       # Per bank write bursts
system.mem_ctrls.perBankRdBursts::7              1136                       # Per bank write bursts
system.mem_ctrls.perBankRdBursts::8               904                       # Per bank write bursts
system.mem_ctrls.perBankRdBursts::9              1342                       # Per bank write bursts
system.mem_ctrls.perBankRdBursts::10              985                       # Per bank write bursts
system.mem_ctrls.perBankRdBursts::11             1150                       # Per bank write bursts
system.mem_ctrls.perBankRdBursts::12             1021                       # Per bank write bursts
system.mem_ctrls.perBankRdBursts::13             1060                       # Per bank write bursts
system.mem_ctrls.perBankRdBursts::14             1397                       # Per bank write bursts
system.mem_ctrls.perBankRdBursts::15             1687                       # Per bank write bursts
system.mem_ctrls.perBankWrBursts::0               486                       # Per bank write bursts
system.mem_ctrls.perBankWrBursts::1               670                       # Per bank write bursts
system.mem_ctrls.perBankWrBursts::2               555                       # Per bank write bursts
system.mem_ctrls.perBankWrBursts::3               388                       # Per bank write bursts
system.mem_ctrls.perBankWrBursts::4               824                       # Per bank write bursts
system.mem_ctrls.perBankWrBursts::5               411                       # Per bank write bursts
system.mem_ctrls.perBankWrBursts::6               384                       # Per bank write bursts
system.mem_ctrls.perBankWrBursts::7               262                       # Per bank write bursts
system.mem_ctrls.perBankWrBursts::8               160                       # Per bank write bursts
system.mem_ctrls.perBankWrBursts::9               288                       # Per bank write bursts
system.mem_ctrls.perBankWrBursts::10              254                       # Per bank write bursts
system.mem_ctrls.perBankWrBursts::11              125                       # Per bank write bursts
system.mem_ctrls.perBankWrBursts::12               41                       # Per bank write bursts
system.mem_ctrls.perBankWrBursts::13               70                       # Per bank write bursts
system.mem_ctrls.perBankWrBursts::14              416                       # Per bank write bursts
system.mem_ctrls.perBankWrBursts::15              567                       # Per bank write bursts
system.mem_ctrls.numRdRetry                         0                       # Number of times read queue was full causing retry
system.mem_ctrls.numWrRetry                         0                       # Number of times write queue was full causing retry
system.mem_ctrls.totGap                  3872504191000                       # Total gap between requests
system.mem_ctrls.readPktSize::0                     0                       # Read request sizes (log2)
system.mem_ctrls.readPktSize::1                     0                       # Read request sizes (log2)
system.mem_ctrls.readPktSize::2                     0                       # Read request sizes (log2)
system.mem_ctrls.readPktSize::3                     0                       # Read request sizes (log2)
system.mem_ctrls.readPktSize::4                     0                       # Read request sizes (log2)
system.mem_ctrls.readPktSize::5                     0                       # Read request sizes (log2)
system.mem_ctrls.readPktSize::6                 19564                       # Read request sizes (log2)
system.mem_ctrls.writePktSize::0                    0                       # Write request sizes (log2)
system.mem_ctrls.writePktSize::1                    0                       # Write request sizes (log2)
system.mem_ctrls.writePktSize::2                    0                       # Write request sizes (log2)
system.mem_ctrls.writePktSize::3                    0                       # Write request sizes (log2)
system.mem_ctrls.writePktSize::4                    0                       # Write request sizes (log2)
system.mem_ctrls.writePktSize::5                    0                       # Write request sizes (log2)
system.mem_ctrls.writePktSize::6                 5902                       # Write request sizes (log2)
system.mem_ctrls.rdQLenPdf::0                   19334                       # What read queue length does an incoming req see
system.mem_ctrls.rdQLenPdf::1                     171                       # What read queue length does an incoming req see
system.mem_ctrls.rdQLenPdf::2                       0                       # What read queue length does an incoming req see
system.mem_ctrls.rdQLenPdf::3                       0                       # What read queue length does an incoming req see
system.mem_ctrls.rdQLenPdf::4                       0                       # What read queue length does an incoming req see
system.mem_ctrls.rdQLenPdf::5                       0                       # What read queue length does an incoming req see
system.mem_ctrls.rdQLenPdf::6                       0                       # What read queue length does an incoming req see
system.mem_ctrls.rdQLenPdf::7                       0                       # What read queue length does an incoming req see
system.mem_ctrls.rdQLenPdf::8                       0                       # What read queue length does an incoming req see
system.mem_ctrls.rdQLenPdf::9                       0                       # What read queue length does an incoming req see
system.mem_ctrls.rdQLenPdf::10                      0                       # What read queue length does an incoming req see
system.mem_ctrls.rdQLenPdf::11                      0                       # What read queue length does an incoming req see
system.mem_ctrls.rdQLenPdf::12                      0                       # What read queue length does an incoming req see
system.mem_ctrls.rdQLenPdf::13                      0                       # What read queue length does an incoming req see
system.mem_ctrls.rdQLenPdf::14                      0                       # What read queue length does an incoming req see
system.mem_ctrls.rdQLenPdf::15                      0                       # What read queue length does an incoming req see
system.mem_ctrls.rdQLenPdf::16                      0                       # What read queue length does an incoming req see
system.mem_ctrls.rdQLenPdf::17                      0                       # What read queue length does an incoming req see
system.mem_ctrls.rdQLenPdf::18                      0                       # What read queue length does an incoming req see
system.mem_ctrls.rdQLenPdf::19                      0                       # What read queue length does an incoming req see
system.mem_ctrls.rdQLenPdf::20                      0                       # What read queue length does an incoming req see
system.mem_ctrls.rdQLenPdf::21                      0                       # What read queue length does an incoming req see
system.mem_ctrls.rdQLenPdf::22                      0                       # What read queue length does an incoming req see
system.mem_ctrls.rdQLenPdf::23                      0                       # What read queue length does an incoming req see
system.mem_ctrls.rdQLenPdf::24                      0                       # What read queue length does an incoming req see
system.mem_ctrls.rdQLenPdf::25                      0                       # What read queue length does an incoming req see
system.mem_ctrls.rdQLenPdf::26                      0                       # What read queue length does an incoming req see
system.mem_ctrls.rdQLenPdf::27                      0                       # What read queue length does an incoming req see
system.mem_ctrls.rdQLenPdf::28                      0                       # What read queue length does an incoming req see
system.mem_ctrls.rdQLenPdf::29                      0                       # What read queue length does an incoming req see
system.mem_ctrls.rdQLenPdf::30                      0                       # What read queue length does an incoming req see
system.mem_ctrls.rdQLenPdf::31                      0                       # What read queue length does an incoming req see
system.mem_ctrls.wrQLenPdf::0                       0                       # What write queue length does an incoming req see
system.mem_ctrls.wrQLenPdf::1                       0                       # What write queue length does an incoming req see
system.mem_ctrls.wrQLenPdf::2                       0                       # What write queue length does an incoming req see
system.mem_ctrls.wrQLenPdf::3                       0                       # What write queue length does an incoming req see
system.mem_ctrls.wrQLenPdf::4                       0                       # What write queue length does an incoming req see
system.mem_ctrls.wrQLenPdf::5                       0                       # What write queue length does an incoming req see
system.mem_ctrls.wrQLenPdf::6                       0                       # What write queue length does an incoming req see
system.mem_ctrls.wrQLenPdf::7                       0                       # What write queue length does an incoming req see
system.mem_ctrls.wrQLenPdf::8                       0                       # What write queue length does an incoming req see
system.mem_ctrls.wrQLenPdf::9                       0                       # What write queue length does an incoming req see
system.mem_ctrls.wrQLenPdf::10                      0                       # What write queue length does an incoming req see
system.mem_ctrls.wrQLenPdf::11                      0                       # What write queue length does an incoming req see
system.mem_ctrls.wrQLenPdf::12                      0                       # What write queue length does an incoming req see
system.mem_ctrls.wrQLenPdf::13                      0                       # What write queue length does an incoming req see
system.mem_ctrls.wrQLenPdf::14                      0                       # What write queue length does an incoming req see
system.mem_ctrls.wrQLenPdf::15                    120                       # What write queue length does an incoming req see
system.mem_ctrls.wrQLenPdf::16                    170                       # What write queue length does an incoming req see
system.mem_ctrls.wrQLenPdf::17                    338                       # What write queue length does an incoming req see
system.mem_ctrls.wrQLenPdf::18                    357                       # What write queue length does an incoming req see
system.mem_ctrls.wrQLenPdf::19                    335                       # What write queue length does an incoming req see
system.mem_ctrls.wrQLenPdf::20                    362                       # What write queue length does an incoming req see
system.mem_ctrls.wrQLenPdf::21                    391                       # What write queue length does an incoming req see
system.mem_ctrls.wrQLenPdf::22                    352                       # What write queue length does an incoming req see
system.mem_ctrls.wrQLenPdf::23                    365                       # What write queue length does an incoming req see
system.mem_ctrls.wrQLenPdf::24                    379                       # What write queue length does an incoming req see
system.mem_ctrls.wrQLenPdf::25                    342                       # What write queue length does an incoming req see
system.mem_ctrls.wrQLenPdf::26                    337                       # What write queue length does an incoming req see
system.mem_ctrls.wrQLenPdf::27                    348                       # What write queue length does an incoming req see
system.mem_ctrls.wrQLenPdf::28                    351                       # What write queue length does an incoming req see
system.mem_ctrls.wrQLenPdf::29                    327                       # What write queue length does an incoming req see
system.mem_ctrls.wrQLenPdf::30                    330                       # What write queue length does an incoming req see
system.mem_ctrls.wrQLenPdf::31                    330                       # What write queue length does an incoming req see
system.mem_ctrls.wrQLenPdf::32                    320                       # What write queue length does an incoming req see
system.mem_ctrls.wrQLenPdf::33                      8                       # What write queue length does an incoming req see
system.mem_ctrls.wrQLenPdf::34                      6                       # What write queue length does an incoming req see
system.mem_ctrls.wrQLenPdf::35                      5                       # What write queue length does an incoming req see
system.mem_ctrls.wrQLenPdf::36                      4                       # What write queue length does an incoming req see
system.mem_ctrls.wrQLenPdf::37                      4                       # What write queue length does an incoming req see
system.mem_ctrls.wrQLenPdf::38                      3                       # What write queue length does an incoming req see
system.mem_ctrls.wrQLenPdf::39                      5                       # What write queue length does an incoming req see
system.mem_ctrls.wrQLenPdf::40                      3                       # What write queue length does an incoming req see
system.mem_ctrls.wrQLenPdf::41                      2                       # What write queue length does an incoming req see
system.mem_ctrls.wrQLenPdf::42                      4                       # What write queue length does an incoming req see
system.mem_ctrls.wrQLenPdf::43                      2                       # What write queue length does an incoming req see
system.mem_ctrls.wrQLenPdf::44                      0                       # What write queue length does an incoming req see
system.mem_ctrls.wrQLenPdf::45                      0                       # What write queue length does an incoming req see
system.mem_ctrls.wrQLenPdf::46                      0                       # What write queue length does an incoming req see
system.mem_ctrls.wrQLenPdf::47                      0                       # What write queue length does an incoming req see
system.mem_ctrls.wrQLenPdf::48                      0                       # What write queue length does an incoming req see
system.mem_ctrls.wrQLenPdf::49                      0                       # What write queue length does an incoming req see
system.mem_ctrls.wrQLenPdf::50                      0                       # What write queue length does an incoming req see
system.mem_ctrls.wrQLenPdf::51                      0                       # What write queue length does an incoming req see
system.mem_ctrls.wrQLenPdf::52                      0                       # What write queue length does an incoming req see
system.mem_ctrls.wrQLenPdf::53                      0                       # What write queue length does an incoming req see
system.mem_ctrls.wrQLenPdf::54                      0                       # What write queue length does an incoming req see
system.mem_ctrls.wrQLenPdf::55                      0                       # What write queue length does an incoming req see
system.mem_ctrls.wrQLenPdf::56                      0                       # What write queue length does an incoming req see
system.mem_ctrls.wrQLenPdf::57                      0                       # What write queue length does an incoming req see
system.mem_ctrls.wrQLenPdf::58                      0                       # What write queue length does an incoming req see
system.mem_ctrls.wrQLenPdf::59                      0                       # What write queue length does an incoming req see
system.mem_ctrls.wrQLenPdf::60                      0                       # What write queue length does an incoming req see
system.mem_ctrls.wrQLenPdf::61                      0                       # What write queue length does an incoming req see
system.mem_ctrls.wrQLenPdf::62                      0                       # What write queue length does an incoming req see
system.mem_ctrls.wrQLenPdf::63                      0                       # What write queue length does an incoming req see
system.mem_ctrls.bytesPerActivate::samples         6972                       # Bytes accessed per row activation
system.mem_ctrls.bytesPerActivate::mean    233.216294                       # Bytes accessed per row activation
system.mem_ctrls.bytesPerActivate::gmean   132.749427                       # Bytes accessed per row activation
system.mem_ctrls.bytesPerActivate::stdev   300.627105                       # Bytes accessed per row activation
system.mem_ctrls.bytesPerActivate::0-127         3663     52.54%     52.54% # Bytes accessed per row activation
system.mem_ctrls.bytesPerActivate::128-255         1599     22.93%     75.47% # Bytes accessed per row activation
system.mem_ctrls.bytesPerActivate::256-383          425      6.10%     81.57% # Bytes accessed per row activation
system.mem_ctrls.bytesPerActivate::384-511          242      3.47%     85.04% # Bytes accessed per row activation
system.mem_ctrls.bytesPerActivate::512-639          142      2.04%     87.08% # Bytes accessed per row activation
system.mem_ctrls.bytesPerActivate::640-767           96      1.38%     88.45% # Bytes accessed per row activation
system.mem_ctrls.bytesPerActivate::768-895           79      1.13%     89.59% # Bytes accessed per row activation
system.mem_ctrls.bytesPerActivate::896-1023           64      0.92%     90.50% # Bytes accessed per row activation
system.mem_ctrls.bytesPerActivate::1024-1151          662      9.50%    100.00% # Bytes accessed per row activation
system.mem_ctrls.bytesPerActivate::total         6972                       # Bytes accessed per row activation
system.mem_ctrls.rdPerTurnAround::samples          317                       # Reads before turning the bus around for writes
system.mem_ctrls.rdPerTurnAround::mean      62.555205                       # Reads before turning the bus around for writes
system.mem_ctrls.rdPerTurnAround::stdev    111.291644                       # Reads before turning the bus around for writes
system.mem_ctrls.rdPerTurnAround::0-31            166     52.37%     52.37% # Reads before turning the bus around for writes
system.mem_ctrls.rdPerTurnAround::32-63            62     19.56%     71.92% # Reads before turning the bus around for writes
system.mem_ctrls.rdPerTurnAround::64-95            23      7.26%     79.18% # Reads before turning the bus around for writes
system.mem_ctrls.rdPerTurnAround::96-127           28      8.83%     88.01% # Reads before turning the bus around for writes
system.mem_ctrls.rdPerTurnAround::128-159           13      4.10%     92.11% # Reads before turning the bus around for writes
system.mem_ctrls.rdPerTurnAround::160-191            2      0.63%     92.74% # Reads before turning the bus around for writes
system.mem_ctrls.rdPerTurnAround::192-223            4      1.26%     94.01% # Reads before turning the bus around for writes
system.mem_ctrls.rdPerTurnAround::224-255            3      0.95%     94.95% # Reads before turning the bus around for writes
system.mem_ctrls.rdPerTurnAround::256-287            1      0.32%     95.27% # Reads before turning the bus around for writes
system.mem_ctrls.rdPerTurnAround::288-319            3      0.95%     96.21% # Reads before turning the bus around for writes
system.mem_ctrls.rdPerTurnAround::320-351            2      0.63%     96.85% # Reads before turning the bus around for writes
system.mem_ctrls.rdPerTurnAround::352-383            2      0.63%     97.48% # Reads before turning the bus around for writes
system.mem_ctrls.rdPerTurnAround::384-415            1      0.32%     97.79% # Reads before turning the bus around for writes
system.mem_ctrls.rdPerTurnAround::448-479            1      0.32%     98.11% # Reads before turning the bus around for writes
system.mem_ctrls.rdPerTurnAround::512-543            1      0.32%     98.42% # Reads before turning the bus around for writes
system.mem_ctrls.rdPerTurnAround::544-575            1      0.32%     98.74% # Reads before turning the bus around for writes
system.mem_ctrls.rdPerTurnAround::576-607            1      0.32%     99.05% # Reads before turning the bus around for writes
system.mem_ctrls.rdPerTurnAround::608-639            1      0.32%     99.37% # Reads before turning the bus around for writes
system.mem_ctrls.rdPerTurnAround::672-703            1      0.32%     99.68% # Reads before turning the bus around for writes
system.mem_ctrls.rdPerTurnAround::864-895            1      0.32%    100.00% # Reads before turning the bus around for writes
system.mem_ctrls.rdPerTurnAround::total           317                       # Reads before turning the bus around for writes
system.mem_ctrls.wrPerTurnAround::samples          317                       # Writes before turning the bus around for reads
system.mem_ctrls.wrPerTurnAround::mean      18.615142                       # Writes before turning the bus around for reads
system.mem_ctrls.wrPerTurnAround::gmean     18.274353                       # Writes before turning the bus around for reads
system.mem_ctrls.wrPerTurnAround::stdev      3.848823                       # Writes before turning the bus around for reads
system.mem_ctrls.wrPerTurnAround::16              190     59.94%     59.94% # Writes before turning the bus around for reads
system.mem_ctrls.wrPerTurnAround::17                3      0.95%     60.88% # Writes before turning the bus around for reads
system.mem_ctrls.wrPerTurnAround::18               10      3.15%     64.04% # Writes before turning the bus around for reads
system.mem_ctrls.wrPerTurnAround::19                4      1.26%     65.30% # Writes before turning the bus around for reads
system.mem_ctrls.wrPerTurnAround::20               17      5.36%     70.66% # Writes before turning the bus around for reads
system.mem_ctrls.wrPerTurnAround::21               26      8.20%     78.86% # Writes before turning the bus around for reads
system.mem_ctrls.wrPerTurnAround::22               15      4.73%     83.60% # Writes before turning the bus around for reads
system.mem_ctrls.wrPerTurnAround::23                2      0.63%     84.23% # Writes before turning the bus around for reads
system.mem_ctrls.wrPerTurnAround::24               29      9.15%     93.38% # Writes before turning the bus around for reads
system.mem_ctrls.wrPerTurnAround::25                2      0.63%     94.01% # Writes before turning the bus around for reads
system.mem_ctrls.wrPerTurnAround::27                2      0.63%     94.64% # Writes before turning the bus around for reads
system.mem_ctrls.wrPerTurnAround::28               14      4.42%     99.05% # Writes before turning the bus around for reads
system.mem_ctrls.wrPerTurnAround::29                1      0.32%     99.37% # Writes before turning the bus around for reads
system.mem_ctrls.wrPerTurnAround::34                1      0.32%     99.68% # Writes before turning the bus around for reads
system.mem_ctrls.wrPerTurnAround::37                1      0.32%    100.00% # Writes before turning the bus around for reads
system.mem_ctrls.wrPerTurnAround::total           317                       # Writes before turning the bus around for reads
system.mem_ctrls.totQLat                    185066246                       # Total ticks spent queuing
system.mem_ctrls.totMemAccLat               550784996                       # Total ticks spent from burst creation until serviced by the DRAM
system.mem_ctrls.totBusLat                   97525000                       # Total ticks spent in databus transfers
system.mem_ctrls.avgQLat                      9488.14                       # Average queueing delay per DRAM burst
system.mem_ctrls.avgBusLat                    5000.00                       # Average bus latency per DRAM burst
system.mem_ctrls.avgMemAccLat                28238.14                       # Average memory access latency per DRAM burst
system.mem_ctrls.avgRdBW                         0.32                       # Average DRAM read bandwidth in MiByte/s
system.mem_ctrls.avgWrBW                         0.10                       # Average achieved write bandwidth in MiByte/s
system.mem_ctrls.avgRdBWSys                      0.32                       # Average system read bandwidth in MiByte/s
system.mem_ctrls.avgWrBWSys                      0.10                       # Average system write bandwidth in MiByte/s
system.mem_ctrls.peakBW                      12800.00                       # Theoretical peak bandwidth in MiByte/s
system.mem_ctrls.busUtil                         0.00                       # Data bus utilization in percentage
system.mem_ctrls.busUtilRead                     0.00                       # Data bus utilization in percentage for reads
system.mem_ctrls.busUtilWrite                    0.00                       # Data bus utilization in percentage for writes
system.mem_ctrls.avgRdQLen                       1.00                       # Average read queue length when enqueuing
system.mem_ctrls.avgWrQLen                      25.90                       # Average write queue length when enqueuing
system.mem_ctrls.readRowHits                    14281                       # Number of row buffer hits during reads
system.mem_ctrls.writeRowHits                    4153                       # Number of row buffer hits during writes
system.mem_ctrls.readRowHitRate                 73.22                       # Row buffer hit rate for reads
system.mem_ctrls.writeRowHitRate                70.39                       # Row buffer hit rate for writes
system.mem_ctrls.avgGap                  152065663.67                       # Average gap between requests
system.mem_ctrls.pageHitRate                    72.56                       # Row buffer hit rate, read and write combined
system.mem_ctrls_0.actEnergy                 46728360                       # Energy for activate commands per rank (pJ)
system.mem_ctrls_0.preEnergy                 25496625                       # Energy for precharge commands per rank (pJ)
system.mem_ctrls_0.readEnergy               148504200                       # Energy for read commands per rank (pJ)
system.mem_ctrls_0.writeEnergy               25894080                       # Energy for write commands per rank (pJ)
system.mem_ctrls_0.refreshEnergy         253177441920                       # Energy for refresh commands per rank (pJ)
system.mem_ctrls_0.actBackEnergy          88223935950                       # Energy for active background per rank (pJ)
system.mem_ctrls_0.preBackEnergy         2248357384500                       # Energy for precharge background per rank (pJ)
system.mem_ctrls_0.totalEnergy           2590005385635                       # Total energy per rank (pJ)
system.mem_ctrls_0.averagePower            668.173866                       # Core power per rank (mW)
system.mem_ctrls_0.memoryStateTime::IDLE 3738999207500                       # Time in different power states
system.mem_ctrls_0.memoryStateTime::REF  129311520000                       # Time in different power states
system.mem_ctrls_0.memoryStateTime::PRE_PDN            0                       # Time in different power states
system.mem_ctrls_0.memoryStateTime::ACT    4194722250                       # Time in different power states
system.mem_ctrls_0.memoryStateTime::ACT_PDN            0                       # Time in different power states
system.mem_ctrls_1.actEnergy                 36855000                       # Energy for activate commands per rank (pJ)
system.mem_ctrls_1.preEnergy                 20109375                       # Energy for precharge commands per rank (pJ)
system.mem_ctrls_1.readEnergy               124979400                       # Energy for read commands per rank (pJ)
system.mem_ctrls_1.writeEnergy               12448080                       # Energy for write commands per rank (pJ)
system.mem_ctrls_1.refreshEnergy         253177441920                       # Energy for refresh commands per rank (pJ)
system.mem_ctrls_1.actBackEnergy          87897272940                       # Energy for active background per rank (pJ)
system.mem_ctrls_1.preBackEnergy         2248643931000                       # Energy for precharge background per rank (pJ)
system.mem_ctrls_1.totalEnergy           2589913037715                       # Total energy per rank (pJ)
system.mem_ctrls_1.averagePower            668.150042                       # Core power per rank (mW)
system.mem_ctrls_1.memoryStateTime::IDLE 3739181684000                       # Time in different power states
system.mem_ctrls_1.memoryStateTime::REF  129311520000                       # Time in different power states
system.mem_ctrls_1.memoryStateTime::PRE_PDN            0                       # Time in different power states
system.mem_ctrls_1.memoryStateTime::ACT    4013806000                       # Time in different power states
system.mem_ctrls_1.memoryStateTime::ACT_PDN            0                       # Time in different power states
system.cpu_voltage_domain.voltage                   1                       # Voltage in Volts
system.cpu_clk_domain.clock                       500                       # Clock period in ticks
system.cpu0.apic_clk_domain.clock                8000                       # Clock period in ticks
system.cpu0.numCycles                      7745474983                       # number of cpu cycles simulated
system.cpu0.numWorkItemsStarted                     0                       # number of work items this cpu started
system.cpu0.numWorkItemsCompleted                   0                       # number of work items this cpu completed
system.cpu0.kern.inst.arm                           0                       # number of arm instructions executed
system.cpu0.kern.inst.quiesce                       0                       # number of quiesce instructions executed
system.cpu0.committedInsts                   19736212                       # Number of instructions committed
system.cpu0.committedOps                     35077898                       # Number of ops (including micro ops) committed
system.cpu0.num_int_alu_accesses             29668291                       # Number of integer alu accesses
system.cpu0.num_fp_alu_accesses               8399337                       # Number of float alu accesses
system.cpu0.num_func_calls                     626373                       # number of times a function call or return occured
system.cpu0.num_conditional_control_insts      2087058                       # number of instructions that are conditional controls
system.cpu0.num_int_insts                    29668291                       # number of integer instructions
system.cpu0.num_fp_insts                      8399337                       # number of float instructions
system.cpu0.num_int_register_reads           57320770                       # number of times the integer registers were read
system.cpu0.num_int_register_writes          22618428                       # number of times the integer registers were written
system.cpu0.num_fp_register_reads            14064330                       # number of times the floating registers were read
system.cpu0.num_fp_register_writes            7474281                       # number of times the floating registers were written
system.cpu0.num_cc_register_reads            14423458                       # number of times the CC registers were read
system.cpu0.num_cc_register_writes           10585236                       # number of times the CC registers were written
system.cpu0.num_mem_refs                      7856887                       # number of memory refs
system.cpu0.num_load_insts                    5820445                       # Number of load instructions
system.cpu0.num_store_insts                   2036442                       # Number of store instructions
system.cpu0.num_idle_cycles              7666723781.887924                       # Number of idle cycles
system.cpu0.num_busy_cycles              78751201.112076                       # Number of busy cycles
system.cpu0.not_idle_fraction                0.010167                       # Percentage of non-idle cycles
system.cpu0.idle_fraction                    0.989833                       # Percentage of idle cycles
system.cpu0.Branches                          2873573                       # Number of branches fetched
system.cpu0.op_class::No_OpClass               129108      0.37%      0.37% # Class of executed instruction
system.cpu0.op_class::IntAlu                 23218348     66.19%     66.56% # Class of executed instruction
system.cpu0.op_class::IntMult                  214571      0.61%     67.17% # Class of executed instruction
system.cpu0.op_class::IntDiv                    40820      0.12%     67.29% # Class of executed instruction
system.cpu0.op_class::FloatAdd                3618219     10.31%     77.60% # Class of executed instruction
system.cpu0.op_class::FloatCmp                      0      0.00%     77.60% # Class of executed instruction
system.cpu0.op_class::FloatCvt                      0      0.00%     77.60% # Class of executed instruction
system.cpu0.op_class::FloatMult                     0      0.00%     77.60% # Class of executed instruction
system.cpu0.op_class::FloatDiv                      0      0.00%     77.60% # Class of executed instruction
system.cpu0.op_class::FloatSqrt                     0      0.00%     77.60% # Class of executed instruction
system.cpu0.op_class::SimdAdd                       0      0.00%     77.60% # Class of executed instruction
system.cpu0.op_class::SimdAddAcc                    0      0.00%     77.60% # Class of executed instruction
system.cpu0.op_class::SimdAlu                       0      0.00%     77.60% # Class of executed instruction
system.cpu0.op_class::SimdCmp                       0      0.00%     77.60% # Class of executed instruction
system.cpu0.op_class::SimdCvt                       0      0.00%     77.60% # Class of executed instruction
system.cpu0.op_class::SimdMisc                      0      0.00%     77.60% # Class of executed instruction
system.cpu0.op_class::SimdMult                      0      0.00%     77.60% # Class of executed instruction
system.cpu0.op_class::SimdMultAcc                   0      0.00%     77.60% # Class of executed instruction
system.cpu0.op_class::SimdShift                     0      0.00%     77.60% # Class of executed instruction
system.cpu0.op_class::SimdShiftAcc                  0      0.00%     77.60% # Class of executed instruction
system.cpu0.op_class::SimdSqrt                      0      0.00%     77.60% # Class of executed instruction
system.cpu0.op_class::SimdFloatAdd                  0      0.00%     77.60% # Class of executed instruction
system.cpu0.op_class::SimdFloatAlu                  0      0.00%     77.60% # Class of executed instruction
system.cpu0.op_class::SimdFloatCmp                  0      0.00%     77.60% # Class of executed instruction
system.cpu0.op_class::SimdFloatCvt                  0      0.00%     77.60% # Class of executed instruction
system.cpu0.op_class::SimdFloatDiv                  0      0.00%     77.60% # Class of executed instruction
system.cpu0.op_class::SimdFloatMisc                 0      0.00%     77.60% # Class of executed instruction
system.cpu0.op_class::SimdFloatMult                 0      0.00%     77.60% # Class of executed instruction
system.cpu0.op_class::SimdFloatMultAcc              0      0.00%     77.60% # Class of executed instruction
system.cpu0.op_class::SimdFloatSqrt                 0      0.00%     77.60% # Class of executed instruction
system.cpu0.op_class::MemRead                 5820445     16.59%     94.19% # Class of executed instruction
system.cpu0.op_class::MemWrite                2036442      5.81%    100.00% # Class of executed instruction
system.cpu0.op_class::IprAccess                     0      0.00%    100.00% # Class of executed instruction
system.cpu0.op_class::InstPrefetch                  0      0.00%    100.00% # Class of executed instruction
system.cpu0.op_class::total                  35077953                       # Class of executed instruction
system.cpu1.apic_clk_domain.clock                8000                       # Clock period in ticks
system.cpu1.numCycles                      7746495809                       # number of cpu cycles simulated
system.cpu1.numWorkItemsStarted                     0                       # number of work items this cpu started
system.cpu1.numWorkItemsCompleted                   0                       # number of work items this cpu completed
system.cpu1.kern.inst.arm                           0                       # number of arm instructions executed
system.cpu1.kern.inst.quiesce                       0                       # number of quiesce instructions executed
system.cpu1.committedInsts                 1994095429                       # Number of instructions committed
system.cpu1.committedOps                   3392133584                       # Number of ops (including micro ops) committed
system.cpu1.num_int_alu_accesses           2756793395                       # Number of integer alu accesses
system.cpu1.num_fp_alu_accesses            1010088517                       # Number of float alu accesses
system.cpu1.num_func_calls                   49913059                       # number of times a function call or return occured
system.cpu1.num_conditional_control_insts    199781595                       # number of instructions that are conditional controls
system.cpu1.num_int_insts                  2756793395                       # number of integer instructions
system.cpu1.num_fp_insts                   1010088517                       # number of float instructions
system.cpu1.num_int_register_reads         5216759548                       # number of times the integer registers were read
system.cpu1.num_int_register_writes        2051974436                       # number of times the integer registers were written
system.cpu1.num_fp_register_reads          1701898740                       # number of times the floating registers were read
system.cpu1.num_fp_register_writes          899765659                       # number of times the floating registers were written
system.cpu1.num_cc_register_reads          1288264411                       # number of times the CC registers were read
system.cpu1.num_cc_register_writes         1039120204                       # number of times the CC registers were written
system.cpu1.num_mem_refs                    738068602                       # number of memory refs
system.cpu1.num_load_insts                  571705938                       # Number of load instructions
system.cpu1.num_store_insts                 166362664                       # Number of store instructions
system.cpu1.num_idle_cycles              68589878.272590                       # Number of idle cycles
system.cpu1.num_busy_cycles              7677905930.727410                       # Number of busy cycles
system.cpu1.not_idle_fraction                0.991146                       # Percentage of non-idle cycles
system.cpu1.idle_fraction                    0.008854                       # Percentage of idle cycles
system.cpu1.Branches                        261100118                       # Number of branches fetched
system.cpu1.op_class::No_OpClass              1506942      0.04%      0.04% # Class of executed instruction
system.cpu1.op_class::IntAlu               2188688098     64.52%     64.57% # Class of executed instruction
system.cpu1.op_class::IntMult                24040429      0.71%     65.28% # Class of executed instruction
system.cpu1.op_class::IntDiv                   210301      0.01%     65.28% # Class of executed instruction
system.cpu1.op_class::FloatAdd              439619365     12.96%     78.24% # Class of executed instruction
system.cpu1.op_class::FloatCmp                      0      0.00%     78.24% # Class of executed instruction
system.cpu1.op_class::FloatCvt                      0      0.00%     78.24% # Class of executed instruction
system.cpu1.op_class::FloatMult                     0      0.00%     78.24% # Class of executed instruction
system.cpu1.op_class::FloatDiv                      0      0.00%     78.24% # Class of executed instruction
system.cpu1.op_class::FloatSqrt                     0      0.00%     78.24% # Class of executed instruction
system.cpu1.op_class::SimdAdd                       0      0.00%     78.24% # Class of executed instruction
system.cpu1.op_class::SimdAddAcc                    0      0.00%     78.24% # Class of executed instruction
system.cpu1.op_class::SimdAlu                       0      0.00%     78.24% # Class of executed instruction
system.cpu1.op_class::SimdCmp                       0      0.00%     78.24% # Class of executed instruction
system.cpu1.op_class::SimdCvt                       0      0.00%     78.24% # Class of executed instruction
system.cpu1.op_class::SimdMisc                      0      0.00%     78.24% # Class of executed instruction
system.cpu1.op_class::SimdMult                      0      0.00%     78.24% # Class of executed instruction
system.cpu1.op_class::SimdMultAcc                   0      0.00%     78.24% # Class of executed instruction
system.cpu1.op_class::SimdShift                     0      0.00%     78.24% # Class of executed instruction
system.cpu1.op_class::SimdShiftAcc                  0      0.00%     78.24% # Class of executed instruction
system.cpu1.op_class::SimdSqrt                      0      0.00%     78.24% # Class of executed instruction
system.cpu1.op_class::SimdFloatAdd                  0      0.00%     78.24% # Class of executed instruction
system.cpu1.op_class::SimdFloatAlu                  0      0.00%     78.24% # Class of executed instruction
system.cpu1.op_class::SimdFloatCmp                  0      0.00%     78.24% # Class of executed instruction
system.cpu1.op_class::SimdFloatCvt                  0      0.00%     78.24% # Class of executed instruction
system.cpu1.op_class::SimdFloatDiv                  0      0.00%     78.24% # Class of executed instruction
system.cpu1.op_class::SimdFloatMisc                 0      0.00%     78.24% # Class of executed instruction
system.cpu1.op_class::SimdFloatMult                 0      0.00%     78.24% # Class of executed instruction
system.cpu1.op_class::SimdFloatMultAcc              0      0.00%     78.24% # Class of executed instruction
system.cpu1.op_class::SimdFloatSqrt                 0      0.00%     78.24% # Class of executed instruction
system.cpu1.op_class::MemRead               571705938     16.85%     95.10% # Class of executed instruction
system.cpu1.op_class::MemWrite              166362664      4.90%    100.00% # Class of executed instruction
system.cpu1.op_class::IprAccess                     0      0.00%    100.00% # Class of executed instruction
system.cpu1.op_class::InstPrefetch                  0      0.00%    100.00% # Class of executed instruction
system.cpu1.op_class::total                3392133737                       # Class of executed instruction
system.cpu2.apic_clk_domain.clock                8000                       # Clock period in ticks
system.cpu2.numCycles                      7740085140                       # number of cpu cycles simulated
system.cpu2.numWorkItemsStarted                     0                       # number of work items this cpu started
system.cpu2.numWorkItemsCompleted                   0                       # number of work items this cpu completed
system.cpu2.kern.inst.arm                           0                       # number of arm instructions executed
system.cpu2.kern.inst.quiesce                       0                       # number of quiesce instructions executed
system.cpu2.committedInsts                    2763922                       # Number of instructions committed
system.cpu2.committedOps                      5961903                       # Number of ops (including micro ops) committed
system.cpu2.num_int_alu_accesses              5830131                       # Number of integer alu accesses
system.cpu2.num_fp_alu_accesses                     0                       # Number of float alu accesses
system.cpu2.num_func_calls                     163751                       # number of times a function call or return occured
system.cpu2.num_conditional_control_insts       421163                       # number of instructions that are conditional controls
system.cpu2.num_int_insts                     5830131                       # number of integer instructions
system.cpu2.num_fp_insts                            0                       # number of float instructions
system.cpu2.num_int_register_reads           11841525                       # number of times the integer registers were read
system.cpu2.num_int_register_writes           4840019                       # number of times the integer registers were written
system.cpu2.num_fp_register_reads                   0                       # number of times the floating registers were read
system.cpu2.num_fp_register_writes                  0                       # number of times the floating registers were written
system.cpu2.num_cc_register_reads             3367385                       # number of times the CC registers were read
system.cpu2.num_cc_register_writes            1771215                       # number of times the CC registers were written
system.cpu2.num_mem_refs                      1417484                       # number of memory refs
system.cpu2.num_load_insts                     883270                       # Number of load instructions
system.cpu2.num_store_insts                    534214                       # Number of store instructions
system.cpu2.num_idle_cycles              7727409801.576900                       # Number of idle cycles
system.cpu2.num_busy_cycles              12675338.423099                       # Number of busy cycles
system.cpu2.not_idle_fraction                0.001638                       # Percentage of non-idle cycles
system.cpu2.idle_fraction                    0.998362                       # Percentage of idle cycles
system.cpu2.Branches                           637973                       # Number of branches fetched
system.cpu2.op_class::No_OpClass               112128      1.88%      1.88% # Class of executed instruction
system.cpu2.op_class::IntAlu                  4380677     73.48%     75.36% # Class of executed instruction
system.cpu2.op_class::IntMult                   12125      0.20%     75.56% # Class of executed instruction
system.cpu2.op_class::IntDiv                    39495      0.66%     76.22% # Class of executed instruction
system.cpu2.op_class::FloatAdd                      0      0.00%     76.22% # Class of executed instruction
system.cpu2.op_class::FloatCmp                      0      0.00%     76.22% # Class of executed instruction
system.cpu2.op_class::FloatCvt                      0      0.00%     76.22% # Class of executed instruction
system.cpu2.op_class::FloatMult                     0      0.00%     76.22% # Class of executed instruction
system.cpu2.op_class::FloatDiv                      0      0.00%     76.22% # Class of executed instruction
system.cpu2.op_class::FloatSqrt                     0      0.00%     76.22% # Class of executed instruction
system.cpu2.op_class::SimdAdd                       0      0.00%     76.22% # Class of executed instruction
system.cpu2.op_class::SimdAddAcc                    0      0.00%     76.22% # Class of executed instruction
system.cpu2.op_class::SimdAlu                       0      0.00%     76.22% # Class of executed instruction
system.cpu2.op_class::SimdCmp                       0      0.00%     76.22% # Class of executed instruction
system.cpu2.op_class::SimdCvt                       0      0.00%     76.22% # Class of executed instruction
system.cpu2.op_class::SimdMisc                      0      0.00%     76.22% # Class of executed instruction
system.cpu2.op_class::SimdMult                      0      0.00%     76.22% # Class of executed instruction
system.cpu2.op_class::SimdMultAcc                   0      0.00%     76.22% # Class of executed instruction
system.cpu2.op_class::SimdShift                     0      0.00%     76.22% # Class of executed instruction
system.cpu2.op_class::SimdShiftAcc                  0      0.00%     76.22% # Class of executed instruction
system.cpu2.op_class::SimdSqrt                      0      0.00%     76.22% # Class of executed instruction
system.cpu2.op_class::SimdFloatAdd                  0      0.00%     76.22% # Class of executed instruction
system.cpu2.op_class::SimdFloatAlu                  0      0.00%     76.22% # Class of executed instruction
system.cpu2.op_class::SimdFloatCmp                  0      0.00%     76.22% # Class of executed instruction
system.cpu2.op_class::SimdFloatCvt                  0      0.00%     76.22% # Class of executed instruction
system.cpu2.op_class::SimdFloatDiv                  0      0.00%     76.22% # Class of executed instruction
system.cpu2.op_class::SimdFloatMisc                 0      0.00%     76.22% # Class of executed instruction
system.cpu2.op_class::SimdFloatMult                 0      0.00%     76.22% # Class of executed instruction
system.cpu2.op_class::SimdFloatMultAcc              0      0.00%     76.22% # Class of executed instruction
system.cpu2.op_class::SimdFloatSqrt                 0      0.00%     76.22% # Class of executed instruction
system.cpu2.op_class::MemRead                  883270     14.82%     91.04% # Class of executed instruction
system.cpu2.op_class::MemWrite                 534214      8.96%    100.00% # Class of executed instruction
system.cpu2.op_class::IprAccess                     0      0.00%    100.00% # Class of executed instruction
system.cpu2.op_class::InstPrefetch                  0      0.00%    100.00% # Class of executed instruction
system.cpu2.op_class::total                   5961909                       # Class of executed instruction
system.cpu3.apic_clk_domain.clock                8000                       # Clock period in ticks
system.cpu3.numCycles                      7748159740                       # number of cpu cycles simulated
system.cpu3.numWorkItemsStarted                     0                       # number of work items this cpu started
system.cpu3.numWorkItemsCompleted                   0                       # number of work items this cpu completed
system.cpu3.kern.inst.arm                           0                       # number of arm instructions executed
system.cpu3.kern.inst.quiesce                       0                       # number of quiesce instructions executed
system.cpu3.committedInsts                    3409385                       # Number of instructions committed
system.cpu3.committedOps                      7096496                       # Number of ops (including micro ops) committed
system.cpu3.num_int_alu_accesses              6958498                       # Number of integer alu accesses
system.cpu3.num_fp_alu_accesses                  1952                       # Number of float alu accesses
system.cpu3.num_func_calls                     183465                       # number of times a function call or return occured
system.cpu3.num_conditional_control_insts       518863                       # number of instructions that are conditional controls
system.cpu3.num_int_insts                     6958498                       # number of integer instructions
system.cpu3.num_fp_insts                         1952                       # number of float instructions
system.cpu3.num_int_register_reads           14132191                       # number of times the integer registers were read
system.cpu3.num_int_register_writes           5739996                       # number of times the integer registers were written
system.cpu3.num_fp_register_reads                3276                       # number of times the floating registers were read
system.cpu3.num_fp_register_writes               1552                       # number of times the floating registers were written
system.cpu3.num_cc_register_reads             3970614                       # number of times the CC registers were read
system.cpu3.num_cc_register_writes            2175872                       # number of times the CC registers were written
system.cpu3.num_mem_refs                      1677627                       # number of memory refs
system.cpu3.num_load_insts                    1041229                       # Number of load instructions
system.cpu3.num_store_insts                    636398                       # Number of store instructions
system.cpu3.num_idle_cycles              7732033118.131235                       # Number of idle cycles
system.cpu3.num_busy_cycles              16126621.868765                       # Number of busy cycles
system.cpu3.not_idle_fraction                0.002081                       # Percentage of non-idle cycles
system.cpu3.idle_fraction                    0.997919                       # Percentage of idle cycles
system.cpu3.Branches                           763910                       # Number of branches fetched
system.cpu3.op_class::No_OpClass               109643      1.55%      1.55% # Class of executed instruction
system.cpu3.op_class::IntAlu                  5253143     74.02%     75.57% # Class of executed instruction
system.cpu3.op_class::IntMult                   16011      0.23%     75.79% # Class of executed instruction
system.cpu3.op_class::IntDiv                    38705      0.55%     76.34% # Class of executed instruction
system.cpu3.op_class::FloatAdd                   1456      0.02%     76.36% # Class of executed instruction
system.cpu3.op_class::FloatCmp                      0      0.00%     76.36% # Class of executed instruction
system.cpu3.op_class::FloatCvt                      0      0.00%     76.36% # Class of executed instruction
system.cpu3.op_class::FloatMult                     0      0.00%     76.36% # Class of executed instruction
system.cpu3.op_class::FloatDiv                      0      0.00%     76.36% # Class of executed instruction
system.cpu3.op_class::FloatSqrt                     0      0.00%     76.36% # Class of executed instruction
system.cpu3.op_class::SimdAdd                       0      0.00%     76.36% # Class of executed instruction
system.cpu3.op_class::SimdAddAcc                    0      0.00%     76.36% # Class of executed instruction
system.cpu3.op_class::SimdAlu                       0      0.00%     76.36% # Class of executed instruction
system.cpu3.op_class::SimdCmp                       0      0.00%     76.36% # Class of executed instruction
system.cpu3.op_class::SimdCvt                       0      0.00%     76.36% # Class of executed instruction
system.cpu3.op_class::SimdMisc                      0      0.00%     76.36% # Class of executed instruction
system.cpu3.op_class::SimdMult                      0      0.00%     76.36% # Class of executed instruction
system.cpu3.op_class::SimdMultAcc                   0      0.00%     76.36% # Class of executed instruction
system.cpu3.op_class::SimdShift                     0      0.00%     76.36% # Class of executed instruction
system.cpu3.op_class::SimdShiftAcc                  0      0.00%     76.36% # Class of executed instruction
system.cpu3.op_class::SimdSqrt                      0      0.00%     76.36% # Class of executed instruction
system.cpu3.op_class::SimdFloatAdd                  0      0.00%     76.36% # Class of executed instruction
system.cpu3.op_class::SimdFloatAlu                  0      0.00%     76.36% # Class of executed instruction
system.cpu3.op_class::SimdFloatCmp                  0      0.00%     76.36% # Class of executed instruction
system.cpu3.op_class::SimdFloatCvt                  0      0.00%     76.36% # Class of executed instruction
system.cpu3.op_class::SimdFloatDiv                  0      0.00%     76.36% # Class of executed instruction
system.cpu3.op_class::SimdFloatMisc                 0      0.00%     76.36% # Class of executed instruction
system.cpu3.op_class::SimdFloatMult                 0      0.00%     76.36% # Class of executed instruction
system.cpu3.op_class::SimdFloatMultAcc              0      0.00%     76.36% # Class of executed instruction
system.cpu3.op_class::SimdFloatSqrt                 0      0.00%     76.36% # Class of executed instruction
system.cpu3.op_class::MemRead                 1041229     14.67%     91.03% # Class of executed instruction
system.cpu3.op_class::MemWrite                 636398      8.97%    100.00% # Class of executed instruction
system.cpu3.op_class::IprAccess                     0      0.00%    100.00% # Class of executed instruction
system.cpu3.op_class::InstPrefetch                  0      0.00%    100.00% # Class of executed instruction
system.cpu3.op_class::total                   7096585                       # Class of executed instruction
system.iobus.trans_dist::ReadReq                  113                       # Transaction distribution
system.iobus.trans_dist::ReadResp                 113                       # Transaction distribution
system.iobus.trans_dist::WriteReq                4004                       # Transaction distribution
system.iobus.trans_dist::WriteResp               4004                       # Transaction distribution
system.iobus.trans_dist::MessageReq                17                       # Transaction distribution
system.iobus.trans_dist::MessageResp               17                       # Transaction distribution
system.iobus.pkt_count_system.pc.south_bridge.io_apic.int_master::system.ruby.l0_cntrl0.sequencer.pio-slave-port            4                       # Packet count per connected master and slave (bytes)
system.iobus.pkt_count_system.pc.south_bridge.io_apic.int_master::system.ruby.l0_cntrl1.sequencer.pio-slave-port            4                       # Packet count per connected master and slave (bytes)
system.iobus.pkt_count_system.pc.south_bridge.io_apic.int_master::system.ruby.l0_cntrl2.sequencer.pio-slave-port            4                       # Packet count per connected master and slave (bytes)
system.iobus.pkt_count_system.pc.south_bridge.io_apic.int_master::system.ruby.l0_cntrl3.sequencer.pio-slave-port            4                       # Packet count per connected master and slave (bytes)
system.iobus.pkt_count_system.pc.south_bridge.io_apic.int_master::total           16                       # Packet count per connected master and slave (bytes)
system.iobus.pkt_count_system.ruby.l0_cntrl0.sequencer.mem-master-port::system.pc.south_bridge.ide.pio          114                       # Packet count per connected master and slave (bytes)
system.iobus.pkt_count_system.ruby.l0_cntrl0.sequencer.mem-master-port::system.pc.south_bridge.io_apic.pio            8                       # Packet count per connected master and slave (bytes)
system.iobus.pkt_count_system.ruby.l0_cntrl0.sequencer.mem-master-port::system.ruby.l0_cntrl0.sequencer.pio-slave-port         1964                       # Packet count per connected master and slave (bytes)
system.iobus.pkt_count_system.ruby.l0_cntrl0.sequencer.mem-master-port::system.ruby.l0_cntrl1.sequencer.pio-slave-port            2                       # Packet count per connected master and slave (bytes)
system.iobus.pkt_count_system.ruby.l0_cntrl0.sequencer.mem-master-port::system.ruby.l0_cntrl3.sequencer.pio-slave-port            2                       # Packet count per connected master and slave (bytes)
system.iobus.pkt_count_system.ruby.l0_cntrl0.sequencer.mem-master-port::total         2090                       # Packet count per connected master and slave (bytes)
system.iobus.pkt_count_system.ruby.l0_cntrl1.sequencer.mem-master-port::system.pc.south_bridge.ide.pio           12                       # Packet count per connected master and slave (bytes)
system.iobus.pkt_count_system.ruby.l0_cntrl1.sequencer.mem-master-port::system.pc.south_bridge.io_apic.pio            8                       # Packet count per connected master and slave (bytes)
system.iobus.pkt_count_system.ruby.l0_cntrl1.sequencer.mem-master-port::system.pc.com_1.pio            2                       # Packet count per connected master and slave (bytes)
system.iobus.pkt_count_system.ruby.l0_cntrl1.sequencer.mem-master-port::system.ruby.l0_cntrl0.sequencer.pio-slave-port            4                       # Packet count per connected master and slave (bytes)
system.iobus.pkt_count_system.ruby.l0_cntrl1.sequencer.mem-master-port::system.ruby.l0_cntrl1.sequencer.pio-slave-port         1962                       # Packet count per connected master and slave (bytes)
system.iobus.pkt_count_system.ruby.l0_cntrl1.sequencer.mem-master-port::system.ruby.l0_cntrl2.sequencer.pio-slave-port            2                       # Packet count per connected master and slave (bytes)
system.iobus.pkt_count_system.ruby.l0_cntrl1.sequencer.mem-master-port::total         1990                       # Packet count per connected master and slave (bytes)
system.iobus.pkt_count_system.ruby.l0_cntrl2.sequencer.mem-master-port::system.pc.south_bridge.ide.pio           12                       # Packet count per connected master and slave (bytes)
system.iobus.pkt_count_system.ruby.l0_cntrl2.sequencer.mem-master-port::system.pc.south_bridge.io_apic.pio            8                       # Packet count per connected master and slave (bytes)
system.iobus.pkt_count_system.ruby.l0_cntrl2.sequencer.mem-master-port::system.ruby.l0_cntrl0.sequencer.pio-slave-port            2                       # Packet count per connected master and slave (bytes)
system.iobus.pkt_count_system.ruby.l0_cntrl2.sequencer.mem-master-port::system.ruby.l0_cntrl2.sequencer.pio-slave-port         1958                       # Packet count per connected master and slave (bytes)
system.iobus.pkt_count_system.ruby.l0_cntrl2.sequencer.mem-master-port::system.ruby.l0_cntrl3.sequencer.pio-slave-port            2                       # Packet count per connected master and slave (bytes)
system.iobus.pkt_count_system.ruby.l0_cntrl2.sequencer.mem-master-port::total         1982                       # Packet count per connected master and slave (bytes)
system.iobus.pkt_count_system.ruby.l0_cntrl3.sequencer.mem-master-port::system.pc.south_bridge.ide.pio           46                       # Packet count per connected master and slave (bytes)
system.iobus.pkt_count_system.ruby.l0_cntrl3.sequencer.mem-master-port::system.pc.south_bridge.io_apic.pio            6                       # Packet count per connected master and slave (bytes)
system.iobus.pkt_count_system.ruby.l0_cntrl3.sequencer.mem-master-port::system.pc.com_1.pio          174                       # Packet count per connected master and slave (bytes)
system.iobus.pkt_count_system.ruby.l0_cntrl3.sequencer.mem-master-port::system.ruby.l0_cntrl0.sequencer.pio-slave-port            2                       # Packet count per connected master and slave (bytes)
system.iobus.pkt_count_system.ruby.l0_cntrl3.sequencer.mem-master-port::system.ruby.l0_cntrl2.sequencer.pio-slave-port            2                       # Packet count per connected master and slave (bytes)
system.iobus.pkt_count_system.ruby.l0_cntrl3.sequencer.mem-master-port::system.ruby.l0_cntrl3.sequencer.pio-slave-port         1960                       # Packet count per connected master and slave (bytes)
system.iobus.pkt_count_system.ruby.l0_cntrl3.sequencer.mem-master-port::total         2190                       # Packet count per connected master and slave (bytes)
system.iobus.pkt_count::total                    8268                       # Packet count per connected master and slave (bytes)
system.iobus.pkt_size_system.pc.south_bridge.io_apic.int_master::system.ruby.l0_cntrl0.sequencer.pio-slave-port            8                       # Cumulative packet size per connected master and slave (bytes)
system.iobus.pkt_size_system.pc.south_bridge.io_apic.int_master::system.ruby.l0_cntrl1.sequencer.pio-slave-port            8                       # Cumulative packet size per connected master and slave (bytes)
system.iobus.pkt_size_system.pc.south_bridge.io_apic.int_master::system.ruby.l0_cntrl2.sequencer.pio-slave-port            8                       # Cumulative packet size per connected master and slave (bytes)
system.iobus.pkt_size_system.pc.south_bridge.io_apic.int_master::system.ruby.l0_cntrl3.sequencer.pio-slave-port            8                       # Cumulative packet size per connected master and slave (bytes)
system.iobus.pkt_size_system.pc.south_bridge.io_apic.int_master::total           32                       # Cumulative packet size per connected master and slave (bytes)
system.iobus.pkt_size_system.ruby.l0_cntrl0.sequencer.mem-master-port::system.pc.south_bridge.ide.pio           66                       # Cumulative packet size per connected master and slave (bytes)
system.iobus.pkt_size_system.ruby.l0_cntrl0.sequencer.mem-master-port::system.pc.south_bridge.io_apic.pio           16                       # Cumulative packet size per connected master and slave (bytes)
system.iobus.pkt_size_system.ruby.l0_cntrl0.sequencer.mem-master-port::system.ruby.l0_cntrl0.sequencer.pio-slave-port         3928                       # Cumulative packet size per connected master and slave (bytes)
system.iobus.pkt_size_system.ruby.l0_cntrl0.sequencer.mem-master-port::system.ruby.l0_cntrl1.sequencer.pio-slave-port            4                       # Cumulative packet size per connected master and slave (bytes)
system.iobus.pkt_size_system.ruby.l0_cntrl0.sequencer.mem-master-port::system.ruby.l0_cntrl3.sequencer.pio-slave-port            4                       # Cumulative packet size per connected master and slave (bytes)
system.iobus.pkt_size_system.ruby.l0_cntrl0.sequencer.mem-master-port::total         4018                       # Cumulative packet size per connected master and slave (bytes)
system.iobus.pkt_size_system.ruby.l0_cntrl1.sequencer.mem-master-port::system.pc.south_bridge.ide.pio            6                       # Cumulative packet size per connected master and slave (bytes)
system.iobus.pkt_size_system.ruby.l0_cntrl1.sequencer.mem-master-port::system.pc.south_bridge.io_apic.pio           16                       # Cumulative packet size per connected master and slave (bytes)
system.iobus.pkt_size_system.ruby.l0_cntrl1.sequencer.mem-master-port::system.pc.com_1.pio            1                       # Cumulative packet size per connected master and slave (bytes)
system.iobus.pkt_size_system.ruby.l0_cntrl1.sequencer.mem-master-port::system.ruby.l0_cntrl0.sequencer.pio-slave-port            8                       # Cumulative packet size per connected master and slave (bytes)
system.iobus.pkt_size_system.ruby.l0_cntrl1.sequencer.mem-master-port::system.ruby.l0_cntrl1.sequencer.pio-slave-port         3924                       # Cumulative packet size per connected master and slave (bytes)
system.iobus.pkt_size_system.ruby.l0_cntrl1.sequencer.mem-master-port::system.ruby.l0_cntrl2.sequencer.pio-slave-port            4                       # Cumulative packet size per connected master and slave (bytes)
system.iobus.pkt_size_system.ruby.l0_cntrl1.sequencer.mem-master-port::total         3959                       # Cumulative packet size per connected master and slave (bytes)
system.iobus.pkt_size_system.ruby.l0_cntrl2.sequencer.mem-master-port::system.pc.south_bridge.ide.pio            6                       # Cumulative packet size per connected master and slave (bytes)
system.iobus.pkt_size_system.ruby.l0_cntrl2.sequencer.mem-master-port::system.pc.south_bridge.io_apic.pio           16                       # Cumulative packet size per connected master and slave (bytes)
system.iobus.pkt_size_system.ruby.l0_cntrl2.sequencer.mem-master-port::system.ruby.l0_cntrl0.sequencer.pio-slave-port            4                       # Cumulative packet size per connected master and slave (bytes)
system.iobus.pkt_size_system.ruby.l0_cntrl2.sequencer.mem-master-port::system.ruby.l0_cntrl2.sequencer.pio-slave-port         3916                       # Cumulative packet size per connected master and slave (bytes)
system.iobus.pkt_size_system.ruby.l0_cntrl2.sequencer.mem-master-port::system.ruby.l0_cntrl3.sequencer.pio-slave-port            4                       # Cumulative packet size per connected master and slave (bytes)
system.iobus.pkt_size_system.ruby.l0_cntrl2.sequencer.mem-master-port::total         3946                       # Cumulative packet size per connected master and slave (bytes)
system.iobus.pkt_size_system.ruby.l0_cntrl3.sequencer.mem-master-port::system.pc.south_bridge.ide.pio           26                       # Cumulative packet size per connected master and slave (bytes)
system.iobus.pkt_size_system.ruby.l0_cntrl3.sequencer.mem-master-port::system.pc.south_bridge.io_apic.pio           12                       # Cumulative packet size per connected master and slave (bytes)
system.iobus.pkt_size_system.ruby.l0_cntrl3.sequencer.mem-master-port::system.pc.com_1.pio           87                       # Cumulative packet size per connected master and slave (bytes)
system.iobus.pkt_size_system.ruby.l0_cntrl3.sequencer.mem-master-port::system.ruby.l0_cntrl0.sequencer.pio-slave-port            4                       # Cumulative packet size per connected master and slave (bytes)
system.iobus.pkt_size_system.ruby.l0_cntrl3.sequencer.mem-master-port::system.ruby.l0_cntrl2.sequencer.pio-slave-port            4                       # Cumulative packet size per connected master and slave (bytes)
system.iobus.pkt_size_system.ruby.l0_cntrl3.sequencer.mem-master-port::system.ruby.l0_cntrl3.sequencer.pio-slave-port         3920                       # Cumulative packet size per connected master and slave (bytes)
system.iobus.pkt_size_system.ruby.l0_cntrl3.sequencer.mem-master-port::total         4053                       # Cumulative packet size per connected master and slave (bytes)
system.iobus.pkt_size::total                    16008                       # Cumulative packet size per connected master and slave (bytes)
system.iobus.reqLayer2.occupancy               163000                       # Layer occupancy (ticks)
system.iobus.reqLayer2.utilization                0.0                       # Layer utilization (%)
system.iobus.reqLayer8.occupancy                26996                       # Layer occupancy (ticks)
system.iobus.reqLayer8.utilization                0.0                       # Layer utilization (%)
system.iobus.reqLayer12.occupancy              113500                       # Layer occupancy (ticks)
system.iobus.reqLayer12.utilization               0.0                       # Layer utilization (%)
system.iobus.reqLayer17.occupancy             2462994                       # Layer occupancy (ticks)
system.iobus.reqLayer17.utilization               0.0                       # Layer utilization (%)
system.iobus.reqLayer18.occupancy             2319983                       # Layer occupancy (ticks)
system.iobus.reqLayer18.utilization               0.0                       # Layer utilization (%)
system.iobus.reqLayer19.occupancy             2449998                       # Layer occupancy (ticks)
system.iobus.reqLayer19.utilization               0.0                       # Layer utilization (%)
system.iobus.reqLayer20.occupancy             2451998                       # Layer occupancy (ticks)
system.iobus.reqLayer20.utilization               0.0                       # Layer utilization (%)
system.iobus.respLayer0.occupancy               12496                       # Layer occupancy (ticks)
system.iobus.respLayer0.utilization               0.0                       # Layer utilization (%)
system.iobus.respLayer2.occupancy             1556000                       # Layer occupancy (ticks)
system.iobus.respLayer2.utilization               0.0                       # Layer utilization (%)
system.iobus.respLayer4.occupancy             1494500                       # Layer occupancy (ticks)
system.iobus.respLayer4.utilization               0.0                       # Layer utilization (%)
system.iobus.respLayer6.occupancy             1488500                       # Layer occupancy (ticks)
system.iobus.respLayer6.utilization               0.0                       # Layer utilization (%)
system.iobus.respLayer8.occupancy             1661000                       # Layer occupancy (ticks)
system.iobus.respLayer8.utilization               0.0                       # Layer utilization (%)
system.pc.south_bridge.ide.disks.dma_read_full_pages            1                       # Number of full page size DMA reads (not PRD).
system.pc.south_bridge.ide.disks.dma_read_bytes         4096                       # Number of bytes transfered via DMA reads (not PRD).
system.pc.south_bridge.ide.disks.dma_read_txs            1                       # Number of DMA read transactions (not PRD).
system.pc.south_bridge.ide.disks.dma_write_full_pages           45                       # Number of full page size DMA writes.
system.pc.south_bridge.ide.disks.dma_write_bytes       184320                       # Number of bytes transfered via DMA writes.
system.pc.south_bridge.ide.disks.dma_write_txs           45                       # Number of DMA write transactions.
system.ruby.clk_domain.clock                      500                       # Clock period in ticks
system.ruby.delayHist::bucket_size                  4                       # delay histogram for all message
system.ruby.delayHist::max_bucket                  39                       # delay histogram for all message
system.ruby.delayHist::samples              149955685                       # delay histogram for all message
[...]
system.ruby.L1Cache_Controller.Ack_all   |        8233     32.91%     32.91% |        5000     19.99%     52.90% |        5638     22.54%     75.44% |        6144     24.56%    100.00%
system.ruby.L1Cache_Controller.Ack_all::total        25015                      
system.ruby.L1Cache_Controller.WB_Ack    |       38799      1.64%      1.64% |     2245749     94.87%     96.51% |       31669      1.34%     97.85% |       50846      2.15%    100.00%
system.ruby.L1Cache_Controller.WB_Ack::total      2367063                      
system.ruby.L1Cache_Controller.I.Load    |       61067      2.68%      2.68% |     2079636     91.22%     93.90% |       58536      2.57%     96.47% |       80460      3.53%    100.00%
system.ruby.L1Cache_Controller.I.Load::total      2279699                      
system.ruby.L1Cache_Controller.I.Store   |       14887      1.62%      1.62% |      868019     94.66%     96.29% |       15817      1.72%     98.01% |       18226      1.99%    100.00%
system.ruby.L1Cache_Controller.I.Store::total       916949                      
system.ruby.L1Cache_Controller.I.Inv     |        7807     35.36%     35.36% |        2938     13.31%     48.66% |        5557     25.17%     73.83% |        5779     26.17%    100.00%
system.ruby.L1Cache_Controller.I.Inv::total        22081                      
system.ruby.L1Cache_Controller.S.Load    |      326879      1.15%      1.15% |    27357491     96.64%     97.79% |      313191      1.11%     98.90% |      311167      1.10%    100.00%
system.ruby.L1Cache_Controller.S.Load::total     28308728                      
system.ruby.L1Cache_Controller.S.Store   |        5222     31.81%     31.81% |        3750     22.84%     54.66% |        3520     21.44%     76.10% |        3923     23.90%    100.00%
system.ruby.L1Cache_Controller.S.Store::total        16415                      
system.ruby.L1Cache_Controller.S.L0_Invalidate_Own |       27166      3.49%      3.49% |      692792     89.09%     92.58% |       25876      3.33%     95.91% |       31815      4.09%    100.00%
system.ruby.L1Cache_Controller.S.L0_Invalidate_Own::total       777649                      
system.ruby.L1Cache_Controller.S.L0_Invalidate_Else |        3708     14.87%     14.87% |        4452     17.85%     32.71% |        8927     35.79%     68.50% |        7857     31.50%    100.00%
system.ruby.L1Cache_Controller.S.L0_Invalidate_Else::total        24944                      
system.ruby.L1Cache_Controller.SS.Load   |        4204     52.77%     52.77% |         777      9.75%     62.53% |        1337     16.78%     79.31% |        1648     20.69%    100.00%
system.ruby.L1Cache_Controller.SS.Load::total         7966                      
system.ruby.L1Cache_Controller.SS.Store  |        2910     61.47%     61.47% |         701     14.81%     76.28% |         115      2.43%     78.71% |        1008     21.29%    100.00%
system.ruby.L1Cache_Controller.SS.Store::total         4734                      
system.ruby.L1Cache_Controller.SS.Inv    |        6645     18.24%     18.24% |        5977     16.40%     34.64% |       12369     33.94%     68.58% |       11448     31.42%    100.00%
system.ruby.L1Cache_Controller.SS.Inv::total        36439                      
system.ruby.L1Cache_Controller.SS.L1_Replacement |       28434      3.63%      3.63% |      693819     88.56%     92.19% |       27565      3.52%     95.71% |       33600      4.29%    100.00%
system.ruby.L1Cache_Controller.SS.L1_Replacement::total       783418                      
system.ruby.L1Cache_Controller.E.WriteBack |       28712      2.04%      2.04% |     1318977     93.75%     95.79% |       21008      1.49%     97.28% |       38271      2.72%    100.00%
system.ruby.L1Cache_Controller.E.WriteBack::total      1406968                      
system.ruby.L1Cache_Controller.E.L0_Invalidate_Own |         101      0.17%      0.17% |       60688     99.56%     99.73% |          75      0.12%     99.85% |          90      0.15%    100.00%
system.ruby.L1Cache_Controller.E.L0_Invalidate_Own::total        60954                      
system.ruby.L1Cache_Controller.E.L0_Invalidate_Else |          68     24.03%     24.03% |          34     12.01%     36.04% |         108     38.16%     74.20% |          73     25.80%    100.00%
system.ruby.L1Cache_Controller.E.L0_Invalidate_Else::total          283                      
system.ruby.L1Cache_Controller.EE.Inv    |           1     20.00%     20.00% |           1     20.00%     40.00% |           2     40.00%     80.00% |           1     20.00%    100.00%
system.ruby.L1Cache_Controller.EE.Inv::total            5                      
system.ruby.L1Cache_Controller.EE.L1_Replacement |          95      0.16%      0.16% |       60673     99.62%     99.78% |          54      0.09%     99.87% |          82      0.13%    100.00%
system.ruby.L1Cache_Controller.EE.L1_Replacement::total        60904                      
system.ruby.L1Cache_Controller.EE.Fwd_GETX |           1     11.11%     11.11% |           3     33.33%     44.44% |           3     33.33%     77.78% |           2     22.22%    100.00%
system.ruby.L1Cache_Controller.EE.Fwd_GETX::total            9                      
system.ruby.L1Cache_Controller.EE.Fwd_GETS |          35     20.23%     20.23% |          22     12.72%     32.95% |          84     48.55%     81.50% |          32     18.50%    100.00%
system.ruby.L1Cache_Controller.EE.Fwd_GETS::total          173                      
system.ruby.L1Cache_Controller.M.WriteBack |     1182091      1.12%      1.12% |   104377967     98.51%     99.62% |      190411      0.18%     99.80% |      207210      0.20%    100.00%
system.ruby.L1Cache_Controller.M.WriteBack::total    105957679                      
system.ruby.L1Cache_Controller.M.L0_Invalidate_Own |        1081      1.44%      1.44% |       73139     97.37%     98.81% |         394      0.52%     99.33% |         502      0.67%    100.00%
system.ruby.L1Cache_Controller.M.L0_Invalidate_Own::total        75116                      
system.ruby.L1Cache_Controller.M.L0_Invalidate_Else |        4159     38.96%     38.96% |        1182     11.07%     50.03% |        2778     26.02%     76.06% |        2556     23.94%    100.00%
system.ruby.L1Cache_Controller.M.L0_Invalidate_Else::total        10675                      
system.ruby.L1Cache_Controller.MM.Load   |      831256      1.19%      1.19% |    68598286     98.45%     99.64% |      121532      0.17%     99.81% |      129968      0.19%    100.00%
system.ruby.L1Cache_Controller.MM.Load::total     69681042                      
system.ruby.L1Cache_Controller.MM.Store  |      333046      0.94%      0.94% |    34981535     98.75%     99.69% |       52580      0.15%     99.84% |       57161      0.16%    100.00%
system.ruby.L1Cache_Controller.MM.Store::total     35424322                      
system.ruby.L1Cache_Controller.MM.Inv    |         537     32.76%     32.76% |         327     19.95%     52.72% |         435     26.54%     79.26% |         340     20.74%    100.00%
system.ruby.L1Cache_Controller.MM.Inv::total         1639                      
system.ruby.L1Cache_Controller.MM.L1_Replacement |       38704      1.68%      1.68% |     2185076     94.75%     96.43% |       31615      1.37%     97.80% |       50764      2.20%    100.00%
system.ruby.L1Cache_Controller.MM.L1_Replacement::total      2306159                      
system.ruby.L1Cache_Controller.MM.Fwd_GETX |        1564     21.03%     21.03% |        1771     23.82%     44.85% |        2649     35.62%     80.47% |        1452     19.53%    100.00%
system.ruby.L1Cache_Controller.MM.Fwd_GETX::total         7436                      
system.ruby.L1Cache_Controller.MM.Fwd_GETS |       11291     38.42%     38.42% |        3884     13.22%     51.63% |        6587     22.41%     74.05% |        7628     25.95%    100.00%
system.ruby.L1Cache_Controller.MM.Fwd_GETS::total        29390                      
system.ruby.L1Cache_Controller.IS.Data_Exclusive |       28879      1.97%      1.97% |     1379701     93.97%     95.94% |       21175      1.44%     97.38% |       38443      2.62%    100.00%
system.ruby.L1Cache_Controller.IS.Data_Exclusive::total      1468198                      
system.ruby.L1Cache_Controller.IS.DataS_fromL1 |        6532     22.09%     22.09% |        7899     26.72%     48.81% |        8522     28.83%     77.64% |        6611     22.36%    100.00%
system.ruby.L1Cache_Controller.IS.DataS_fromL1::total        29564                      
system.ruby.L1Cache_Controller.IS.Data_all_Acks |       25656      3.28%      3.28% |      692036     88.50%     91.78% |       28839      3.69%     95.47% |       35406      4.53%    100.00%
system.ruby.L1Cache_Controller.IS.Data_all_Acks::total       781937                      
system.ruby.L1Cache_Controller.IM.Data   |         101      2.61%      2.61% |         549     14.19%     16.80% |        2005     51.84%     68.64% |        1213     31.36%    100.00%
system.ruby.L1Cache_Controller.IM.Data::total         3868                      
system.ruby.L1Cache_Controller.IM.Data_all_Acks |       14786      1.62%      1.62% |      867470     95.00%     96.62% |       13814      1.51%     98.14% |       17013      1.86%    100.00%
system.ruby.L1Cache_Controller.IM.Data_all_Acks::total       913083                      
system.ruby.L1Cache_Controller.SM.Inv    |           0      0.00%      0.00% |           0      0.00%      0.00% |           2    100.00%    100.00% |           0      0.00%    100.00%
system.ruby.L1Cache_Controller.SM.Inv::total            2                      
system.ruby.L1Cache_Controller.SM.Ack    |       19745     42.56%     42.56% |       10281     22.16%     64.72% |        7422     16.00%     80.71% |        8948     19.29%    100.00%
system.ruby.L1Cache_Controller.SM.Ack::total        46396                      
system.ruby.L1Cache_Controller.SM.Ack_all |        8233     32.91%     32.91% |        5000     19.99%     52.90% |        5638     22.54%     75.44% |        6144     24.56%    100.00%
system.ruby.L1Cache_Controller.SM.Ack_all::total        25015                      
system.ruby.L1Cache_Controller.M_I.Fwd_GETS |           0      0.00%      0.00% |           0      0.00%      0.00% |           1    100.00%    100.00% |           0      0.00%    100.00%
system.ruby.L1Cache_Controller.M_I.Fwd_GETS::total            1                      
system.ruby.L1Cache_Controller.M_I.WB_Ack |       38799      1.64%      1.64% |     2245749     94.87%     96.51% |       31668      1.34%     97.85% |       50846      2.15%    100.00%
system.ruby.L1Cache_Controller.M_I.WB_Ack::total      2367062                      
system.ruby.L1Cache_Controller.SINK_WB_ACK.WB_Ack |           0      0.00%      0.00% |           0      0.00%      0.00% |           1    100.00%    100.00% |           0      0.00%    100.00%
system.ruby.L1Cache_Controller.SINK_WB_ACK.WB_Ack::total            1                      
system.ruby.L1Cache_Controller.S_IL0.Store |           0      0.00%      0.00% |           0      0.00%      0.00% |           1    100.00%    100.00% |           0      0.00%    100.00%
system.ruby.L1Cache_Controller.S_IL0.Store::total            1                      
system.ruby.L1Cache_Controller.S_IL0.L0_Invalidate_Own |       27166      3.49%      3.49% |      692792     89.09%     92.58% |       25876      3.33%     95.91% |       31815      4.09%    100.00%
system.ruby.L1Cache_Controller.S_IL0.L0_Invalidate_Own::total       777649                      
system.ruby.L1Cache_Controller.S_IL0.L0_Invalidate_Else |        3708     14.87%     14.87% |        4452     17.85%     32.71% |        8927     35.79%     68.50% |        7857     31.50%    100.00%
system.ruby.L1Cache_Controller.S_IL0.L0_Invalidate_Else::total        24944                      
system.ruby.L1Cache_Controller.S_IL0.L0_Ack |       30874      3.85%      3.85% |      697244     86.87%     90.72% |       34803      4.34%     95.06% |       39672      4.94%    100.00%
system.ruby.L1Cache_Controller.S_IL0.L0_Ack::total       802593                      
system.ruby.L1Cache_Controller.E_IL0.L0_DataAck |          37     25.34%     25.34% |          23     15.75%     41.10% |          40     27.40%     68.49% |          46     31.51%    100.00%
system.ruby.L1Cache_Controller.E_IL0.L0_DataAck::total          146                      
system.ruby.L1Cache_Controller.E_IL0.L0_Invalidate_Own |         101      0.17%      0.17% |       60688     99.56%     99.73% |          75      0.12%     99.85% |          90      0.15%    100.00%
system.ruby.L1Cache_Controller.E_IL0.L0_Invalidate_Own::total        60954                      
system.ruby.L1Cache_Controller.E_IL0.L0_Invalidate_Else |          68     24.03%     24.03% |          34     12.01%     36.04% |         108     38.16%     74.20% |          73     25.80%    100.00%
system.ruby.L1Cache_Controller.E_IL0.L0_Invalidate_Else::total          283                      
system.ruby.L1Cache_Controller.E_IL0.L0_Ack |         132      0.22%      0.22% |       60699     99.36%     99.57% |         143      0.23%     99.81% |         117      0.19%    100.00%
system.ruby.L1Cache_Controller.E_IL0.L0_Ack::total        61091                      
system.ruby.L1Cache_Controller.M_IL0.L0_DataAck |        3625      8.67%      8.67% |       32390     77.49%     86.16% |        3007      7.19%     93.35% |        2778      6.65%    100.00%
system.ruby.L1Cache_Controller.M_IL0.L0_DataAck::total        41800                      
system.ruby.L1Cache_Controller.M_IL0.L0_Invalidate_Own |        1081      1.44%      1.44% |       73139     97.37%     98.81% |         394      0.52%     99.33% |         502      0.67%    100.00%
system.ruby.L1Cache_Controller.M_IL0.L0_Invalidate_Own::total        75116                      
system.ruby.L1Cache_Controller.M_IL0.L0_Invalidate_Else |        4159     38.96%     38.96% |        1182     11.07%     50.03% |        2778     26.02%     76.06% |        2556     23.94%    100.00%
system.ruby.L1Cache_Controller.M_IL0.L0_Invalidate_Else::total        10675                      
system.ruby.L1Cache_Controller.M_IL0.L0_Ack |        1615      3.67%      3.67% |       41931     95.32%     98.99% |         165      0.38%     99.36% |         280      0.64%    100.00%
system.ruby.L1Cache_Controller.M_IL0.L0_Ack::total        43991                      
system.ruby.L2Cache_Controller.L1_GETS        2280149      0.00%      0.00%
system.ruby.L2Cache_Controller.L1_GETX         916958      0.00%      0.00%
system.ruby.L2Cache_Controller.L1_UPGRADE        21150      0.00%      0.00%
system.ruby.L2Cache_Controller.L1_PUTX        2367064      0.00%      0.00%
system.ruby.L2Cache_Controller.L2_Replacement        23780      0.00%      0.00%
system.ruby.L2Cache_Controller.L2_Replacement_clean        15649      0.00%      0.00%
system.ruby.L2Cache_Controller.Mem_Data         57631      0.00%      0.00%
system.ruby.L2Cache_Controller.Mem_Ack          40387      0.00%      0.00%
system.ruby.L2Cache_Controller.WB_Data          20000      0.00%      0.00%
system.ruby.L2Cache_Controller.WB_Data_clean        11203      0.00%      0.00%
system.ruby.L2Cache_Controller.Ack               5256      0.00%      0.00%
system.ruby.L2Cache_Controller.Ack_all           3007      0.00%      0.00%
system.ruby.L2Cache_Controller.Unblock          29564      0.00%      0.00%
system.ruby.L2Cache_Controller.Exclusive_Unblock      2406297      0.00%      0.00%
system.ruby.L2Cache_Controller.MEM_Inv           1916      0.00%      0.00%
system.ruby.L2Cache_Controller.NP.L1_GETS        30487      0.00%      0.00%
system.ruby.L2Cache_Controller.NP.L1_GETX        27144      0.00%      0.00%
system.ruby.L2Cache_Controller.SS.L1_GETS       781911      0.00%      0.00%
system.ruby.L2Cache_Controller.SS.L1_GETX         3868      0.00%      0.00%
system.ruby.L2Cache_Controller.SS.L1_UPGRADE        21147      0.00%      0.00%
system.ruby.L2Cache_Controller.SS.L1_PUTX            1      0.00%      0.00%
system.ruby.L2Cache_Controller.SS.L2_Replacement          514      0.00%      0.00%
system.ruby.L2Cache_Controller.SS.L2_Replacement_clean         2352      0.00%      0.00%
system.ruby.L2Cache_Controller.SS.MEM_Inv          136      0.00%      0.00%
system.ruby.L2Cache_Controller.M.L1_GETS      1437724      0.00%      0.00%
system.ruby.L2Cache_Controller.M.L1_GETX       878494      0.00%      0.00%
system.ruby.L2Cache_Controller.M.L2_Replacement        22746      0.00%      0.00%
system.ruby.L2Cache_Controller.M.L2_Replacement_clean        12184      0.00%      0.00%
system.ruby.L2Cache_Controller.M.MEM_Inv          811      0.00%      0.00%
system.ruby.L2Cache_Controller.MT.L1_GETS        29564      0.00%      0.00%
system.ruby.L2Cache_Controller.MT.L1_GETX         7445      0.00%      0.00%
system.ruby.L2Cache_Controller.MT.L1_PUTX      2367062      0.00%      0.00%
system.ruby.L2Cache_Controller.MT.L2_Replacement          520      0.00%      0.00%
system.ruby.L2Cache_Controller.MT.L2_Replacement_clean         1113      0.00%      0.00%
system.ruby.L2Cache_Controller.MT.MEM_Inv           11      0.00%      0.00%
system.ruby.L2Cache_Controller.M_I.Mem_Ack        40387      0.00%      0.00%
system.ruby.L2Cache_Controller.M_I.MEM_Inv          811      0.00%      0.00%
system.ruby.L2Cache_Controller.MT_I.WB_Data          391      0.00%      0.00%
system.ruby.L2Cache_Controller.MT_I.WB_Data_clean          140      0.00%      0.00%
system.ruby.L2Cache_Controller.MT_I.MEM_Inv           11      0.00%      0.00%
system.ruby.L2Cache_Controller.MCT_I.WB_Data          546      0.00%      0.00%
system.ruby.L2Cache_Controller.MCT_I.WB_Data_clean          562      0.00%      0.00%
system.ruby.L2Cache_Controller.MCT_I.Ack_all            5      0.00%      0.00%
system.ruby.L2Cache_Controller.I_I.Ack           4443      0.00%      0.00%
system.ruby.L2Cache_Controller.I_I.Ack_all         2352      0.00%      0.00%
system.ruby.L2Cache_Controller.S_I.Ack            813      0.00%      0.00%
system.ruby.L2Cache_Controller.S_I.Ack_all          650      0.00%      0.00%
system.ruby.L2Cache_Controller.S_I.MEM_Inv          136      0.00%      0.00%
system.ruby.L2Cache_Controller.ISS.L1_GETS           13      0.00%      0.00%
system.ruby.L2Cache_Controller.ISS.Mem_Data        30474      0.00%      0.00%
system.ruby.L2Cache_Controller.IS.Mem_Data           13      0.00%      0.00%
system.ruby.L2Cache_Controller.IM.Mem_Data        27144      0.00%      0.00%
system.ruby.L2Cache_Controller.SS_MB.L1_GETS           83      0.00%      0.00%
system.ruby.L2Cache_Controller.SS_MB.L1_GETX            2      0.00%      0.00%
system.ruby.L2Cache_Controller.SS_MB.L1_UPGRADE            2      0.00%      0.00%
system.ruby.L2Cache_Controller.SS_MB.Exclusive_Unblock        25015      0.00%      0.00%
system.ruby.L2Cache_Controller.MT_MB.L1_GETS          352      0.00%      0.00%
system.ruby.L2Cache_Controller.MT_MB.L1_GETX            4      0.00%      0.00%
system.ruby.L2Cache_Controller.MT_MB.Exclusive_Unblock      2381282      0.00%      0.00%
system.ruby.L2Cache_Controller.MT_IIB.L1_GETS           15      0.00%      0.00%
system.ruby.L2Cache_Controller.MT_IIB.L1_GETX            1      0.00%      0.00%
system.ruby.L2Cache_Controller.MT_IIB.L1_UPGRADE            1      0.00%      0.00%
system.ruby.L2Cache_Controller.MT_IIB.L1_PUTX            1      0.00%      0.00%
system.ruby.L2Cache_Controller.MT_IIB.WB_Data        19056      0.00%      0.00%
system.ruby.L2Cache_Controller.MT_IIB.WB_Data_clean        10493      0.00%      0.00%
system.ruby.L2Cache_Controller.MT_IIB.Unblock           15      0.00%      0.00%
system.ruby.L2Cache_Controller.MT_IB.WB_Data            7      0.00%      0.00%
system.ruby.L2Cache_Controller.MT_IB.WB_Data_clean            8      0.00%      0.00%
system.ruby.L2Cache_Controller.MT_SB.Unblock        29549      0.00%      0.00%

---------- End Simulation Statistics   ----------
