
---------- Begin Simulation Statistics ----------
sim_seconds                                  0.886411                       # Number of seconds simulated
sim_ticks                                886411206000                       # Number of ticks simulated
final_tick                               54399018978501                       # Number of ticks from beginning of simulation (restored from checkpoints and never reset)
sim_freq                                 1000000000000                       # Frequency of simulated ticks
host_inst_rate                                 104322                       # Simulator instruction rate (inst/s)
host_op_rate                                   172811                       # Simulator op (including micro ops) rate (op/s)
host_tick_rate                              330190151                       # Simulator tick rate (ticks/s)
host_mem_usage                                1863664                       # Number of bytes of host memory used
host_seconds                                  2684.55                       # Real time elapsed on the host
sim_insts                                   280056098                       # Number of instructions simulated
sim_ops                                     463919875                       # Number of ops (including micro ops) simulated
system.voltage_domain.voltage                       1                       # Voltage in Volts
system.clk_domain.clock                          1000                       # Clock period in ticks
system.mem_ctrls.bytes_read::ruby.dir_cntrl0    305753088                       # Number of bytes read from this memory
system.mem_ctrls.bytes_read::total          305753088                       # Number of bytes read from this memory
system.mem_ctrls.bytes_written::ruby.dir_cntrl0    143722944                       # Number of bytes written to this memory
system.mem_ctrls.bytes_written::total       143722944                       # Number of bytes written to this memory
system.mem_ctrls.num_reads::ruby.dir_cntrl0      4777392                       # Number of read requests responded to by this memory
system.mem_ctrls.num_reads::total             4777392                       # Number of read requests responded to by this memory
system.mem_ctrls.num_writes::ruby.dir_cntrl0      2245671                       # Number of write requests responded to by this memory
system.mem_ctrls.num_writes::total            2245671                       # Number of write requests responded to by this memory
system.mem_ctrls.bw_read::ruby.dir_cntrl0    344933690                       # Total read bandwidth from this memory (bytes/s)
system.mem_ctrls.bw_read::total             344933690                       # Total read bandwidth from this memory (bytes/s)
system.mem_ctrls.bw_write::ruby.dir_cntrl0    162140261                       # Write bandwidth from this memory (bytes/s)
system.mem_ctrls.bw_write::total            162140261                       # Write bandwidth from this memory (bytes/s)
system.mem_ctrls.bw_total::ruby.dir_cntrl0    507073951                       # Total bandwidth to/from this memory (bytes/s)
system.mem_ctrls.bw_total::total            507073951                       # Total bandwidth to/from this memory (bytes/s)
system.mem_ctrls.readReqs                     4777392                       # Number of read requests accepted
system.mem_ctrls.writeReqs                    2245671                       # Number of write requests accepted
system.mem_ctrls.readBursts                   4777392                       # Number of DRAM read bursts, including those serviced by the write queue
system.mem_ctrls.writeBursts                  2245671                       # Number of DRAM write bursts, including those merged in the write queue
system.mem_ctrls.bytesReadDRAM              305675904                       # Total number of bytes read from DRAM
system.mem_ctrls.bytesReadWrQ                   77184                       # Total number of bytes read from write queue
system.mem_ctrls.bytesWritten               143722752                       # Total number of bytes written to DRAM
system.mem_ctrls.bytesReadSys               305753088                       # Total read bytes from the system interface side
system.mem_ctrls.bytesWrittenSys            143722944                       # Total written bytes from the system interface side
system.mem_ctrls.servicedByWrQ                   1206                       # Number of DRAM read bursts serviced by the write queue
system.mem_ctrls.mergedWrBursts                     1                       # Number of DRAM write bursts merged with an existing one
system.mem_ctrls.neitherReadNorWriteReqs            0                       # Number of requests that are neither read nor write
system.mem_ctrls.perBankRdBursts::0            318216                       # Per bank write bursts
system.mem_ctrls.perBankRdBursts::1            309849                       # Per bank write bursts
system.mem_ctrls.perBankRdBursts::2            301183                       # Per bank write bursts
system.mem_ctrls.perBankRdBursts::3            313320                       # Per bank write bursts
system.mem_ctrls.perBankRdBursts::4            317773                       # Per bank write bursts
system.mem_ctrls.perBankRdBursts::5            301378                       # Per bank write bursts
system.mem_ctrls.perBankRdBursts::6            302457                       # Per bank write bursts
system.mem_ctrls.perBankRdBursts::7            293025                       # Per bank write bursts
system.mem_ctrls.perBankRdBursts::8            298401                       # Per bank write bursts
system.mem_ctrls.perBankRdBursts::9            303473                       # Per bank write bursts
system.mem_ctrls.perBankRdBursts::10           290141                       # Per bank write bursts
system.mem_ctrls.perBankRdBursts::11           280156                       # Per bank write bursts
system.mem_ctrls.perBankRdBursts::12           293237                       # Per bank write bursts
system.mem_ctrls.perBankRdBursts::13           284121                       # Per bank write bursts
system.mem_ctrls.perBankRdBursts::14           286089                       # Per bank write bursts
system.mem_ctrls.perBankRdBursts::15           283367                       # Per bank write bursts
system.mem_ctrls.perBankWrBursts::0            141005                       # Per bank write bursts
system.mem_ctrls.perBankWrBursts::1            152814                       # Per bank write bursts
system.mem_ctrls.perBankWrBursts::2            140584                       # Per bank write bursts
system.mem_ctrls.perBankWrBursts::3            139488                       # Per bank write bursts
system.mem_ctrls.perBankWrBursts::4            140229                       # Per bank write bursts
system.mem_ctrls.perBankWrBursts::5            141826                       # Per bank write bursts
system.mem_ctrls.perBankWrBursts::6            148003                       # Per bank write bursts
system.mem_ctrls.perBankWrBursts::7            139349                       # Per bank write bursts
system.mem_ctrls.perBankWrBursts::8            143700                       # Per bank write bursts
system.mem_ctrls.perBankWrBursts::9            138768                       # Per bank write bursts
system.mem_ctrls.perBankWrBursts::10           138197                       # Per bank write bursts
system.mem_ctrls.perBankWrBursts::11           136868                       # Per bank write bursts
system.mem_ctrls.perBankWrBursts::12           136167                       # Per bank write bursts
system.mem_ctrls.perBankWrBursts::13           136926                       # Per bank write bursts
system.mem_ctrls.perBankWrBursts::14           136577                       # Per bank write bursts
system.mem_ctrls.perBankWrBursts::15           135167                       # Per bank write bursts
system.mem_ctrls.numRdRetry                         0                       # Number of times read queue was full causing retry
system.mem_ctrls.numWrRetry                         0                       # Number of times write queue was full causing retry
system.mem_ctrls.totGap                  886411151000                       # Total gap between requests
system.mem_ctrls.readPktSize::0                     0                       # Read request sizes (log2)
system.mem_ctrls.readPktSize::1                     0                       # Read request sizes (log2)
system.mem_ctrls.readPktSize::2                     0                       # Read request sizes (log2)
system.mem_ctrls.readPktSize::3                     0                       # Read request sizes (log2)
system.mem_ctrls.readPktSize::4                     0                       # Read request sizes (log2)
system.mem_ctrls.readPktSize::5                     0                       # Read request sizes (log2)
system.mem_ctrls.readPktSize::6               4777392                       # Read request sizes (log2)
system.mem_ctrls.writePktSize::0                    0                       # Write request sizes (log2)
system.mem_ctrls.writePktSize::1                    0                       # Write request sizes (log2)
system.mem_ctrls.writePktSize::2                    0                       # Write request sizes (log2)
system.mem_ctrls.writePktSize::3                    0                       # Write request sizes (log2)
system.mem_ctrls.writePktSize::4                    0                       # Write request sizes (log2)
system.mem_ctrls.writePktSize::5                    0                       # Write request sizes (log2)
system.mem_ctrls.writePktSize::6              2245671                       # Write request sizes (log2)
system.mem_ctrls.rdQLenPdf::0                 4714334                       # What read queue length does an incoming req see
system.mem_ctrls.rdQLenPdf::1                   61528                       # What read queue length does an incoming req see
system.mem_ctrls.rdQLenPdf::2                     322                       # What read queue length does an incoming req see
system.mem_ctrls.rdQLenPdf::3                       2                       # What read queue length does an incoming req see
system.mem_ctrls.rdQLenPdf::4                       0                       # What read queue length does an incoming req see
system.mem_ctrls.rdQLenPdf::5                       0                       # What read queue length does an incoming req see
system.mem_ctrls.rdQLenPdf::6                       0                       # What read queue length does an incoming req see
system.mem_ctrls.rdQLenPdf::7                       0                       # What read queue length does an incoming req see
system.mem_ctrls.rdQLenPdf::8                       0                       # What read queue length does an incoming req see
system.mem_ctrls.rdQLenPdf::9                       0                       # What read queue length does an incoming req see
system.mem_ctrls.rdQLenPdf::10                      0                       # What read queue length does an incoming req see
system.mem_ctrls.rdQLenPdf::11                      0                       # What read queue length does an incoming req see
system.mem_ctrls.rdQLenPdf::12                      0                       # What read queue length does an incoming req see
system.mem_ctrls.rdQLenPdf::13                      0                       # What read queue length does an incoming req see
system.mem_ctrls.rdQLenPdf::14                      0                       # What read queue length does an incoming req see
system.mem_ctrls.rdQLenPdf::15                      0                       # What read queue length does an incoming req see
system.mem_ctrls.rdQLenPdf::16                      0                       # What read queue length does an incoming req see
system.mem_ctrls.rdQLenPdf::17                      0                       # What read queue length does an incoming req see
system.mem_ctrls.rdQLenPdf::18                      0                       # What read queue length does an incoming req see
system.mem_ctrls.rdQLenPdf::19                      0                       # What read queue length does an incoming req see
system.mem_ctrls.rdQLenPdf::20                      0                       # What read queue length does an incoming req see
system.mem_ctrls.rdQLenPdf::21                      0                       # What read queue length does an incoming req see
system.mem_ctrls.rdQLenPdf::22                      0                       # What read queue length does an incoming req see
system.mem_ctrls.rdQLenPdf::23                      0                       # What read queue length does an incoming req see
system.mem_ctrls.rdQLenPdf::24                      0                       # What read queue length does an incoming req see
system.mem_ctrls.rdQLenPdf::25                      0                       # What read queue length does an incoming req see
system.mem_ctrls.rdQLenPdf::26                      0                       # What read queue length does an incoming req see
system.mem_ctrls.rdQLenPdf::27                      0                       # What read queue length does an incoming req see
system.mem_ctrls.rdQLenPdf::28                      0                       # What read queue length does an incoming req see
system.mem_ctrls.rdQLenPdf::29                      0                       # What read queue length does an incoming req see
system.mem_ctrls.rdQLenPdf::30                      0                       # What read queue length does an incoming req see
system.mem_ctrls.rdQLenPdf::31                      0                       # What read queue length does an incoming req see
system.mem_ctrls.wrQLenPdf::0                       0                       # What write queue length does an incoming req see
system.mem_ctrls.wrQLenPdf::1                       0                       # What write queue length does an incoming req see
system.mem_ctrls.wrQLenPdf::2                       0                       # What write queue length does an incoming req see
system.mem_ctrls.wrQLenPdf::3                       0                       # What write queue length does an incoming req see
system.mem_ctrls.wrQLenPdf::4                       0                       # What write queue length does an incoming req see
system.mem_ctrls.wrQLenPdf::5                       0                       # What write queue length does an incoming req see
system.mem_ctrls.wrQLenPdf::6                       0                       # What write queue length does an incoming req see
system.mem_ctrls.wrQLenPdf::7                       0                       # What write queue length does an incoming req see
system.mem_ctrls.wrQLenPdf::8                       0                       # What write queue length does an incoming req see
system.mem_ctrls.wrQLenPdf::9                       0                       # What write queue length does an incoming req see
system.mem_ctrls.wrQLenPdf::10                      0                       # What write queue length does an incoming req see
system.mem_ctrls.wrQLenPdf::11                      0                       # What write queue length does an incoming req see
system.mem_ctrls.wrQLenPdf::12                      0                       # What write queue length does an incoming req see
system.mem_ctrls.wrQLenPdf::13                      0                       # What write queue length does an incoming req see
system.mem_ctrls.wrQLenPdf::14                      0                       # What write queue length does an incoming req see
system.mem_ctrls.wrQLenPdf::15                   2833                       # What write queue length does an incoming req see
system.mem_ctrls.wrQLenPdf::16                   3362                       # What write queue length does an incoming req see
system.mem_ctrls.wrQLenPdf::17                 138260                       # What write queue length does an incoming req see
system.mem_ctrls.wrQLenPdf::18                 140208                       # What write queue length does an incoming req see
system.mem_ctrls.wrQLenPdf::19                 140195                       # What write queue length does an incoming req see
system.mem_ctrls.wrQLenPdf::20                 140202                       # What write queue length does an incoming req see
system.mem_ctrls.wrQLenPdf::21                 140168                       # What write queue length does an incoming req see
system.mem_ctrls.wrQLenPdf::22                 140103                       # What write queue length does an incoming req see
system.mem_ctrls.wrQLenPdf::23                 140078                       # What write queue length does an incoming req see
system.mem_ctrls.wrQLenPdf::24                 140084                       # What write queue length does an incoming req see
system.mem_ctrls.wrQLenPdf::25                 140051                       # What write queue length does an incoming req see
system.mem_ctrls.wrQLenPdf::26                 140052                       # What write queue length does an incoming req see
system.mem_ctrls.wrQLenPdf::27                 140076                       # What write queue length does an incoming req see
system.mem_ctrls.wrQLenPdf::28                 140049                       # What write queue length does an incoming req see
system.mem_ctrls.wrQLenPdf::29                 140011                       # What write queue length does an incoming req see
system.mem_ctrls.wrQLenPdf::30                 140003                       # What write queue length does an incoming req see
system.mem_ctrls.wrQLenPdf::31                 139962                       # What write queue length does an incoming req see
system.mem_ctrls.wrQLenPdf::32                 139935                       # What write queue length does an incoming req see
system.mem_ctrls.wrQLenPdf::33                     20                       # What write queue length does an incoming req see
system.mem_ctrls.wrQLenPdf::34                      6                       # What write queue length does an incoming req see
system.mem_ctrls.wrQLenPdf::35                      5                       # What write queue length does an incoming req see
system.mem_ctrls.wrQLenPdf::36                      3                       # What write queue length does an incoming req see
system.mem_ctrls.wrQLenPdf::37                      3                       # What write queue length does an incoming req see
system.mem_ctrls.wrQLenPdf::38                      1                       # What write queue length does an incoming req see
system.mem_ctrls.wrQLenPdf::39                      0                       # What write queue length does an incoming req see
system.mem_ctrls.wrQLenPdf::40                      0                       # What write queue length does an incoming req see
system.mem_ctrls.wrQLenPdf::41                      0                       # What write queue length does an incoming req see
system.mem_ctrls.wrQLenPdf::42                      0                       # What write queue length does an incoming req see
system.mem_ctrls.wrQLenPdf::43                      0                       # What write queue length does an incoming req see
system.mem_ctrls.wrQLenPdf::44                      0                       # What write queue length does an incoming req see
system.mem_ctrls.wrQLenPdf::45                      0                       # What write queue length does an incoming req see
system.mem_ctrls.wrQLenPdf::46                      0                       # What write queue length does an incoming req see
system.mem_ctrls.wrQLenPdf::47                      0                       # What write queue length does an incoming req see
system.mem_ctrls.wrQLenPdf::48                      0                       # What write queue length does an incoming req see
system.mem_ctrls.wrQLenPdf::49                      0                       # What write queue length does an incoming req see
system.mem_ctrls.wrQLenPdf::50                      0                       # What write queue length does an incoming req see
system.mem_ctrls.wrQLenPdf::51                      0                       # What write queue length does an incoming req see
system.mem_ctrls.wrQLenPdf::52                      0                       # What write queue length does an incoming req see
system.mem_ctrls.wrQLenPdf::53                      0                       # What write queue length does an incoming req see
system.mem_ctrls.wrQLenPdf::54                      0                       # What write queue length does an incoming req see
system.mem_ctrls.wrQLenPdf::55                      0                       # What write queue length does an incoming req see
system.mem_ctrls.wrQLenPdf::56                      0                       # What write queue length does an incoming req see
system.mem_ctrls.wrQLenPdf::57                      0                       # What write queue length does an incoming req see
system.mem_ctrls.wrQLenPdf::58                      0                       # What write queue length does an incoming req see
system.mem_ctrls.wrQLenPdf::59                      0                       # What write queue length does an incoming req see
system.mem_ctrls.wrQLenPdf::60                      0                       # What write queue length does an incoming req see
system.mem_ctrls.wrQLenPdf::61                      0                       # What write queue length does an incoming req see
system.mem_ctrls.wrQLenPdf::62                      0                       # What write queue length does an incoming req see
system.mem_ctrls.wrQLenPdf::63                      0                       # What write queue length does an incoming req see
system.mem_ctrls.bytesPerActivate::samples      6274930                       # Bytes accessed per row activation
system.mem_ctrls.bytesPerActivate::mean     71.618094                       # Bytes accessed per row activation
system.mem_ctrls.bytesPerActivate::gmean    68.579111                       # Bytes accessed per row activation
system.mem_ctrls.bytesPerActivate::stdev    37.229163                       # Bytes accessed per row activation
system.mem_ctrls.bytesPerActivate::0-127      5724653     91.23%     91.23% # Bytes accessed per row activation
system.mem_ctrls.bytesPerActivate::128-255       516478      8.23%     99.46% # Bytes accessed per row activation
system.mem_ctrls.bytesPerActivate::256-383        19203      0.31%     99.77% # Bytes accessed per row activation
system.mem_ctrls.bytesPerActivate::384-511         7244      0.12%     99.88% # Bytes accessed per row activation
system.mem_ctrls.bytesPerActivate::512-639         1567      0.02%     99.91% # Bytes accessed per row activation
system.mem_ctrls.bytesPerActivate::640-767         1052      0.02%     99.92% # Bytes accessed per row activation
system.mem_ctrls.bytesPerActivate::768-895          739      0.01%     99.94% # Bytes accessed per row activation
system.mem_ctrls.bytesPerActivate::896-1023          635      0.01%     99.95% # Bytes accessed per row activation
system.mem_ctrls.bytesPerActivate::1024-1151         3359      0.05%    100.00% # Bytes accessed per row activation
system.mem_ctrls.bytesPerActivate::total      6274930                       # Bytes accessed per row activation
system.mem_ctrls.rdPerTurnAround::samples       139918                       # Reads before turning the bus around for writes
system.mem_ctrls.rdPerTurnAround::mean      34.135622                       # Reads before turning the bus around for writes
system.mem_ctrls.rdPerTurnAround::stdev      9.107935                       # Reads before turning the bus around for writes
system.mem_ctrls.rdPerTurnAround::0-15            112      0.08%      0.08% # Reads before turning the bus around for writes
system.mem_ctrls.rdPerTurnAround::16-31         53335     38.12%     38.20% # Reads before turning the bus around for writes
system.mem_ctrls.rdPerTurnAround::32-47         82490     58.96%     97.15% # Reads before turning the bus around for writes
system.mem_ctrls.rdPerTurnAround::48-63          3363      2.40%     99.56% # Reads before turning the bus around for writes
system.mem_ctrls.rdPerTurnAround::64-79            52      0.04%     99.60% # Reads before turning the bus around for writes
system.mem_ctrls.rdPerTurnAround::80-95            71      0.05%     99.65% # Reads before turning the bus around for writes
system.mem_ctrls.rdPerTurnAround::96-111          112      0.08%     99.73% # Reads before turning the bus around for writes
system.mem_ctrls.rdPerTurnAround::112-127          110      0.08%     99.80% # Reads before turning the bus around for writes
system.mem_ctrls.rdPerTurnAround::128-143          118      0.08%     99.89% # Reads before turning the bus around for writes
system.mem_ctrls.rdPerTurnAround::144-159           77      0.06%     99.94% # Reads before turning the bus around for writes
system.mem_ctrls.rdPerTurnAround::160-175           39      0.03%     99.97% # Reads before turning the bus around for writes
system.mem_ctrls.rdPerTurnAround::176-191           17      0.01%     99.98% # Reads before turning the bus around for writes
system.mem_ctrls.rdPerTurnAround::192-207           12      0.01%     99.99% # Reads before turning the bus around for writes
system.mem_ctrls.rdPerTurnAround::208-223            2      0.00%     99.99% # Reads before turning the bus around for writes
system.mem_ctrls.rdPerTurnAround::224-239            2      0.00%    100.00% # Reads before turning the bus around for writes
system.mem_ctrls.rdPerTurnAround::240-255            2      0.00%    100.00% # Reads before turning the bus around for writes
system.mem_ctrls.rdPerTurnAround::304-319            1      0.00%    100.00% # Reads before turning the bus around for writes
system.mem_ctrls.rdPerTurnAround::336-351            1      0.00%    100.00% # Reads before turning the bus around for writes
system.mem_ctrls.rdPerTurnAround::416-431            1      0.00%    100.00% # Reads before turning the bus around for writes
system.mem_ctrls.rdPerTurnAround::448-463            1      0.00%    100.00% # Reads before turning the bus around for writes
system.mem_ctrls.rdPerTurnAround::total        139918                       # Reads before turning the bus around for writes
system.mem_ctrls.wrPerTurnAround::samples       139918                       # Writes before turning the bus around for reads
system.mem_ctrls.wrPerTurnAround::mean      16.049886                       # Writes before turning the bus around for reads
system.mem_ctrls.wrPerTurnAround::gmean     16.046400                       # Writes before turning the bus around for reads
system.mem_ctrls.wrPerTurnAround::stdev      0.365542                       # Writes before turning the bus around for reads
system.mem_ctrls.wrPerTurnAround::16           136473     97.54%     97.54% # Writes before turning the bus around for reads
system.mem_ctrls.wrPerTurnAround::17              470      0.34%     97.87% # Writes before turning the bus around for reads
system.mem_ctrls.wrPerTurnAround::18             2847      2.03%     99.91% # Writes before turning the bus around for reads
system.mem_ctrls.wrPerTurnAround::19               27      0.02%     99.93% # Writes before turning the bus around for reads
system.mem_ctrls.wrPerTurnAround::20               17      0.01%     99.94% # Writes before turning the bus around for reads
system.mem_ctrls.wrPerTurnAround::21               24      0.02%     99.96% # Writes before turning the bus around for reads
system.mem_ctrls.wrPerTurnAround::22               16      0.01%     99.97% # Writes before turning the bus around for reads
system.mem_ctrls.wrPerTurnAround::23                2      0.00%     99.97% # Writes before turning the bus around for reads
system.mem_ctrls.wrPerTurnAround::24               23      0.02%     99.99% # Writes before turning the bus around for reads
system.mem_ctrls.wrPerTurnAround::25                4      0.00%     99.99% # Writes before turning the bus around for reads
system.mem_ctrls.wrPerTurnAround::26                1      0.00%     99.99% # Writes before turning the bus around for reads
system.mem_ctrls.wrPerTurnAround::28               10      0.01%    100.00% # Writes before turning the bus around for reads
system.mem_ctrls.wrPerTurnAround::30                1      0.00%    100.00% # Writes before turning the bus around for reads
system.mem_ctrls.wrPerTurnAround::36                1      0.00%    100.00% # Writes before turning the bus around for reads
system.mem_ctrls.wrPerTurnAround::37                1      0.00%    100.00% # Writes before turning the bus around for reads
system.mem_ctrls.wrPerTurnAround::48                1      0.00%    100.00% # Writes before turning the bus around for reads
system.mem_ctrls.wrPerTurnAround::total        139918                       # Writes before turning the bus around for reads
system.mem_ctrls.totQLat                 122968434615                       # Total ticks spent queuing
system.mem_ctrls.totMemAccLat            212521922115                       # Total ticks spent from burst creation until serviced by the DRAM
system.mem_ctrls.totBusLat                23880930000                       # Total ticks spent in databus transfers
system.mem_ctrls.avgQLat                     25746.16                       # Average queueing delay per DRAM burst
system.mem_ctrls.avgBusLat                    5000.00                       # Average bus latency per DRAM burst
system.mem_ctrls.avgMemAccLat                44496.16                       # Average memory access latency per DRAM burst
system.mem_ctrls.avgRdBW                       344.85                       # Average DRAM read bandwidth in MiByte/s
system.mem_ctrls.avgWrBW                       162.14                       # Average achieved write bandwidth in MiByte/s
system.mem_ctrls.avgRdBWSys                    344.93                       # Average system read bandwidth in MiByte/s
system.mem_ctrls.avgWrBWSys                    162.14                       # Average system write bandwidth in MiByte/s
system.mem_ctrls.peakBW                      12800.00                       # Theoretical peak bandwidth in MiByte/s
system.mem_ctrls.busUtil                         3.96                       # Data bus utilization in percentage
system.mem_ctrls.busUtilRead                     2.69                       # Data bus utilization in percentage for reads
system.mem_ctrls.busUtilWrite                    1.27                       # Data bus utilization in percentage for writes
system.mem_ctrls.avgRdQLen                       1.01                       # Average read queue length when enqueuing
system.mem_ctrls.avgWrQLen                      25.63                       # Average write queue length when enqueuing
system.mem_ctrls.readRowHits                   647651                       # Number of row buffer hits during reads
system.mem_ctrls.writeRowHits                   99273                       # Number of row buffer hits during writes
system.mem_ctrls.readRowHitRate                 13.56                       # Row buffer hit rate for reads
system.mem_ctrls.writeRowHitRate                 4.42                       # Row buffer hit rate for writes
system.mem_ctrls.avgGap                     126214.32                       # Average gap between requests
system.mem_ctrls.pageHitRate                    10.64                       # Row buffer hit rate, read and write combined
system.mem_ctrls_0.actEnergy              24351568920                       # Energy for activate commands per rank (pJ)
system.mem_ctrls_0.preEnergy              13287066375                       # Energy for precharge commands per rank (pJ)
system.mem_ctrls_0.readEnergy             19312098000                       # Energy for read commands per rank (pJ)
system.mem_ctrls_0.writeEnergy             7461467280                       # Energy for write commands per rank (pJ)
system.mem_ctrls_0.refreshEnergy          58427441280                       # Energy for refresh commands per rank (pJ)
system.mem_ctrls_0.actBackEnergy         576948598110                       # Energy for active background per rank (pJ)
system.mem_ctrls_0.preBackEnergy          30632908500                       # Energy for precharge background per rank (pJ)
system.mem_ctrls_0.totalEnergy           730421148465                       # Total energy per rank (pJ)
system.mem_ctrls_0.averagePower            816.526342                       # Core power per rank (mW)
system.mem_ctrls_0.memoryStateTime::IDLE  45642436250                       # Time in different power states
system.mem_ctrls_0.memoryStateTime::REF   29599180000                       # Time in different power states
system.mem_ctrls_0.memoryStateTime::PRE_PDN            0                       # Time in different power states
system.mem_ctrls_0.memoryStateTime::ACT  811169346750                       # Time in different power states
system.mem_ctrls_0.memoryStateTime::ACT_PDN            0                       # Time in different power states
system.mem_ctrls_1.actEnergy              23198888160                       # Energy for activate commands per rank (pJ)
system.mem_ctrls_1.preEnergy              12658123500                       # Energy for precharge commands per rank (pJ)
system.mem_ctrls_1.readEnergy             18213569400                       # Energy for read commands per rank (pJ)
system.mem_ctrls_1.writeEnergy             7183397520                       # Energy for write commands per rank (pJ)
system.mem_ctrls_1.refreshEnergy          58427441280                       # Energy for refresh commands per rank (pJ)
system.mem_ctrls_1.actBackEnergy         576896588460                       # Energy for active background per rank (pJ)
system.mem_ctrls_1.preBackEnergy          30678531000                       # Energy for precharge background per rank (pJ)
system.mem_ctrls_1.totalEnergy           727256539320                       # Total energy per rank (pJ)
system.mem_ctrls_1.averagePower            812.988675                       # Core power per rank (mW)
system.mem_ctrls_1.memoryStateTime::IDLE  45298916501                       # Time in different power states
system.mem_ctrls_1.memoryStateTime::REF   29599180000                       # Time in different power states
system.mem_ctrls_1.memoryStateTime::PRE_PDN            0                       # Time in different power states
system.mem_ctrls_1.memoryStateTime::ACT  811511962249                       # Time in different power states
system.mem_ctrls_1.memoryStateTime::ACT_PDN            0                       # Time in different power states
system.cpu_voltage_domain.voltage                   1                       # Voltage in Volts
system.cpu_clk_domain.clock                       500                       # Clock period in ticks
system.cpu0.apic_clk_domain.clock                8000                       # Clock period in ticks
system.cpu0.numCycles                      1770139703                       # number of cpu cycles simulated
system.cpu0.numWorkItemsStarted                     0                       # number of work items this cpu started
system.cpu0.numWorkItemsCompleted                   0                       # number of work items this cpu completed
system.cpu0.kern.inst.arm                           0                       # number of arm instructions executed
system.cpu0.kern.inst.quiesce                       0                       # number of quiesce instructions executed
system.cpu0.committedInsts                    1480769                       # Number of instructions committed
system.cpu0.committedOps                      3108408                       # Number of ops (including micro ops) committed
system.cpu0.num_int_alu_accesses              3052966                       # Number of integer alu accesses
system.cpu0.num_fp_alu_accesses                    68                       # Number of float alu accesses
system.cpu0.num_func_calls                      82998                       # number of times a function call or return occured
system.cpu0.num_conditional_control_insts       249476                       # number of instructions that are conditional controls
system.cpu0.num_int_insts                     3052966                       # number of integer instructions
system.cpu0.num_fp_insts                           68                       # number of float instructions
system.cpu0.num_int_register_reads            5980663                       # number of times the integer registers were read
system.cpu0.num_int_register_writes           2506640                       # number of times the integer registers were written
system.cpu0.num_fp_register_reads                  70                       # number of times the floating registers were read
system.cpu0.num_fp_register_writes                 62                       # number of times the floating registers were written
system.cpu0.num_cc_register_reads             1896082                       # number of times the CC registers were read
system.cpu0.num_cc_register_writes            1026111                       # number of times the CC registers were written
system.cpu0.num_mem_refs                       641557                       # number of memory refs
system.cpu0.num_load_insts                     397758                       # Number of load instructions
system.cpu0.num_store_insts                    243799                       # Number of store instructions
system.cpu0.num_idle_cycles              1758125262.333556                       # Number of idle cycles
system.cpu0.num_busy_cycles              12014440.666444                       # Number of busy cycles
system.cpu0.not_idle_fraction                0.006787                       # Percentage of non-idle cycles
system.cpu0.idle_fraction                    0.993213                       # Percentage of idle cycles
system.cpu0.Branches                           358206                       # Number of branches fetched
system.cpu0.op_class::No_OpClass                39179      1.26%      1.26% # Class of executed instruction
system.cpu0.op_class::IntAlu                  2413888     77.64%     78.90% # Class of executed instruction
system.cpu0.op_class::IntMult                    4239      0.14%     79.04% # Class of executed instruction
system.cpu0.op_class::IntDiv                    10082      0.32%     79.36% # Class of executed instruction
system.cpu0.op_class::FloatAdd                     24      0.00%     79.36% # Class of executed instruction
system.cpu0.op_class::FloatCmp                      0      0.00%     79.36% # Class of executed instruction
system.cpu0.op_class::FloatCvt                      0      0.00%     79.36% # Class of executed instruction
system.cpu0.op_class::FloatMult                     0      0.00%     79.36% # Class of executed instruction
system.cpu0.op_class::FloatDiv                      0      0.00%     79.36% # Class of executed instruction
system.cpu0.op_class::FloatSqrt                     0      0.00%     79.36% # Class of executed instruction
system.cpu0.op_class::SimdAdd                       0      0.00%     79.36% # Class of executed instruction
system.cpu0.op_class::SimdAddAcc                    0      0.00%     79.36% # Class of executed instruction
system.cpu0.op_class::SimdAlu                       0      0.00%     79.36% # Class of executed instruction
system.cpu0.op_class::SimdCmp                       0      0.00%     79.36% # Class of executed instruction
system.cpu0.op_class::SimdCvt                       0      0.00%     79.36% # Class of executed instruction
system.cpu0.op_class::SimdMisc                      0      0.00%     79.36% # Class of executed instruction
system.cpu0.op_class::SimdMult                      0      0.00%     79.36% # Class of executed instruction
system.cpu0.op_class::SimdMultAcc                   0      0.00%     79.36% # Class of executed instruction
system.cpu0.op_class::SimdShift                     0      0.00%     79.36% # Class of executed instruction
system.cpu0.op_class::SimdShiftAcc                  0      0.00%     79.36% # Class of executed instruction
system.cpu0.op_class::SimdSqrt                      0      0.00%     79.36% # Class of executed instruction
system.cpu0.op_class::SimdFloatAdd                  0      0.00%     79.36% # Class of executed instruction
system.cpu0.op_class::SimdFloatAlu                  0      0.00%     79.36% # Class of executed instruction
system.cpu0.op_class::SimdFloatCmp                  0      0.00%     79.36% # Class of executed instruction
system.cpu0.op_class::SimdFloatCvt                  0      0.00%     79.36% # Class of executed instruction
system.cpu0.op_class::SimdFloatDiv                  0      0.00%     79.36% # Class of executed instruction
system.cpu0.op_class::SimdFloatMisc                 0      0.00%     79.36% # Class of executed instruction
system.cpu0.op_class::SimdFloatMult                 0      0.00%     79.36% # Class of executed instruction
system.cpu0.op_class::SimdFloatMultAcc              0      0.00%     79.36% # Class of executed instruction
system.cpu0.op_class::SimdFloatSqrt                 0      0.00%     79.36% # Class of executed instruction
system.cpu0.op_class::MemRead                  397758     12.79%     92.16% # Class of executed instruction
system.cpu0.op_class::MemWrite                 243799      7.84%    100.00% # Class of executed instruction
system.cpu0.op_class::IprAccess                     0      0.00%    100.00% # Class of executed instruction
system.cpu0.op_class::InstPrefetch                  0      0.00%    100.00% # Class of executed instruction
system.cpu0.op_class::total                   3108969                       # Class of executed instruction
system.cpu1.apic_clk_domain.clock                8000                       # Clock period in ticks
system.cpu1.numCycles                      1770743989                       # number of cpu cycles simulated
system.cpu1.numWorkItemsStarted                     0                       # number of work items this cpu started
system.cpu1.numWorkItemsCompleted                   0                       # number of work items this cpu completed
system.cpu1.kern.inst.arm                           0                       # number of arm instructions executed
system.cpu1.kern.inst.quiesce                       0                       # number of quiesce instructions executed
system.cpu1.committedInsts                    3803511                       # Number of instructions committed
system.cpu1.committedOps                      7474786                       # Number of ops (including micro ops) committed
system.cpu1.num_int_alu_accesses              7359070                       # Number of integer alu accesses
system.cpu1.num_fp_alu_accesses                  1928                       # Number of float alu accesses
system.cpu1.num_func_calls                     176347                       # number of times a function call or return occured
system.cpu1.num_conditional_control_insts       675862                       # number of instructions that are conditional controls
system.cpu1.num_int_insts                     7359070                       # number of integer instructions
system.cpu1.num_fp_insts                         1928                       # number of float instructions
system.cpu1.num_int_register_reads           14394411                       # number of times the integer registers were read
system.cpu1.num_int_register_writes           5977609                       # number of times the integer registers were written
system.cpu1.num_fp_register_reads                3235                       # number of times the floating registers were read
system.cpu1.num_fp_register_writes               1535                       # number of times the floating registers were written
system.cpu1.num_cc_register_reads             4891509                       # number of times the CC registers were read
system.cpu1.num_cc_register_writes            2647604                       # number of times the CC registers were written
system.cpu1.num_mem_refs                      1556642                       # number of memory refs
system.cpu1.num_load_insts                    1017207                       # Number of load instructions
system.cpu1.num_store_insts                    539435                       # Number of store instructions
system.cpu1.num_idle_cycles              1747779232.072248                       # Number of idle cycles
system.cpu1.num_busy_cycles              22964756.927752                       # Number of busy cycles
system.cpu1.not_idle_fraction                0.012969                       # Percentage of non-idle cycles
system.cpu1.idle_fraction                    0.987031                       # Percentage of idle cycles
system.cpu1.Branches                           891214                       # Number of branches fetched
system.cpu1.op_class::No_OpClass                38082      0.51%      0.51% # Class of executed instruction
system.cpu1.op_class::IntAlu                  5863084     78.44%     78.95% # Class of executed instruction
system.cpu1.op_class::IntMult                    8665      0.12%     79.06% # Class of executed instruction
system.cpu1.op_class::IntDiv                     6961      0.09%     79.16% # Class of executed instruction
system.cpu1.op_class::FloatAdd                   1446      0.02%     79.18% # Class of executed instruction
system.cpu1.op_class::FloatCmp                      0      0.00%     79.18% # Class of executed instruction
system.cpu1.op_class::FloatCvt                      0      0.00%     79.18% # Class of executed instruction
system.cpu1.op_class::FloatMult                     0      0.00%     79.18% # Class of executed instruction
system.cpu1.op_class::FloatDiv                      0      0.00%     79.18% # Class of executed instruction
system.cpu1.op_class::FloatSqrt                     0      0.00%     79.18% # Class of executed instruction
system.cpu1.op_class::SimdAdd                       0      0.00%     79.18% # Class of executed instruction
system.cpu1.op_class::SimdAddAcc                    0      0.00%     79.18% # Class of executed instruction
system.cpu1.op_class::SimdAlu                       0      0.00%     79.18% # Class of executed instruction
system.cpu1.op_class::SimdCmp                       0      0.00%     79.18% # Class of executed instruction
system.cpu1.op_class::SimdCvt                       0      0.00%     79.18% # Class of executed instruction
system.cpu1.op_class::SimdMisc                      0      0.00%     79.18% # Class of executed instruction
system.cpu1.op_class::SimdMult                      0      0.00%     79.18% # Class of executed instruction
system.cpu1.op_class::SimdMultAcc                   0      0.00%     79.18% # Class of executed instruction
system.cpu1.op_class::SimdShift                     0      0.00%     79.18% # Class of executed instruction
system.cpu1.op_class::SimdShiftAcc                  0      0.00%     79.18% # Class of executed instruction
system.cpu1.op_class::SimdSqrt                      0      0.00%     79.18% # Class of executed instruction
system.cpu1.op_class::SimdFloatAdd                  0      0.00%     79.18% # Class of executed instruction
system.cpu1.op_class::SimdFloatAlu                  0      0.00%     79.18% # Class of executed instruction
system.cpu1.op_class::SimdFloatCmp                  0      0.00%     79.18% # Class of executed instruction
system.cpu1.op_class::SimdFloatCvt                  0      0.00%     79.18% # Class of executed instruction
system.cpu1.op_class::SimdFloatDiv                  0      0.00%     79.18% # Class of executed instruction
system.cpu1.op_class::SimdFloatMisc                 0      0.00%     79.18% # Class of executed instruction
system.cpu1.op_class::SimdFloatMult                 0      0.00%     79.18% # Class of executed instruction
system.cpu1.op_class::SimdFloatMultAcc              0      0.00%     79.18% # Class of executed instruction
system.cpu1.op_class::SimdFloatSqrt                 0      0.00%     79.18% # Class of executed instruction
system.cpu1.op_class::MemRead                 1017207     13.61%     92.78% # Class of executed instruction
system.cpu1.op_class::MemWrite                 539435      7.22%    100.00% # Class of executed instruction
system.cpu1.op_class::IprAccess                     0      0.00%    100.00% # Class of executed instruction
system.cpu1.op_class::InstPrefetch                  0      0.00%    100.00% # Class of executed instruction
system.cpu1.op_class::total                   7474880                       # Class of executed instruction
system.cpu2.apic_clk_domain.clock                8000                       # Clock period in ticks
system.cpu2.numCycles                      1771945980                       # number of cpu cycles simulated
system.cpu2.numWorkItemsStarted                     0                       # number of work items this cpu started
system.cpu2.numWorkItemsCompleted                   0                       # number of work items this cpu completed
system.cpu2.kern.inst.arm                           0                       # number of arm instructions executed
system.cpu2.kern.inst.quiesce                       0                       # number of quiesce instructions executed
system.cpu2.committedInsts                  269299902                       # Number of instructions committed
system.cpu2.committedOps                    442611936                       # Number of ops (including micro ops) committed
system.cpu2.num_int_alu_accesses            346585378                       # Number of integer alu accesses
system.cpu2.num_fp_alu_accesses             109594681                       # Number of float alu accesses
system.cpu2.num_func_calls                    5376962                       # number of times a function call or return occured
system.cpu2.num_conditional_control_insts     16419833                       # number of instructions that are conditional controls
system.cpu2.num_int_insts                   346585378                       # number of integer instructions
system.cpu2.num_fp_insts                    109594681                       # number of float instructions
system.cpu2.num_int_register_reads          737206430                       # number of times the integer registers were read
system.cpu2.num_int_register_writes         276098868                       # number of times the integer registers were written
system.cpu2.num_fp_register_reads           204618310                       # number of times the floating registers were read
system.cpu2.num_fp_register_writes          105641720                       # number of times the floating registers were written
system.cpu2.num_cc_register_reads           177462412                       # number of times the CC registers were read
system.cpu2.num_cc_register_writes          152790276                       # number of times the CC registers were written
system.cpu2.num_mem_refs                     92900718                       # number of memory refs
system.cpu2.num_load_insts                   73868967                       # Number of load instructions
system.cpu2.num_store_insts                  19031751                       # Number of store instructions
system.cpu2.num_idle_cycles              18736807.488013                       # Number of idle cycles
system.cpu2.num_busy_cycles              1753209172.511987                       # Number of busy cycles
system.cpu2.not_idle_fraction                0.989426                       # Percentage of non-idle cycles
system.cpu2.idle_fraction                    0.010574                       # Percentage of idle cycles
system.cpu2.Branches                         26492955                       # Number of branches fetched
system.cpu2.op_class::No_OpClass              3913091      0.88%      0.88% # Class of executed instruction
system.cpu2.op_class::IntAlu                254781682     57.56%     58.45% # Class of executed instruction
system.cpu2.op_class::IntMult                    2967      0.00%     58.45% # Class of executed instruction
system.cpu2.op_class::IntDiv                      448      0.00%     58.45% # Class of executed instruction
system.cpu2.op_class::FloatAdd               91015565     20.56%     79.01% # Class of executed instruction
system.cpu2.op_class::FloatCmp                      0      0.00%     79.01% # Class of executed instruction
system.cpu2.op_class::FloatCvt                      0      0.00%     79.01% # Class of executed instruction
system.cpu2.op_class::FloatMult                     0      0.00%     79.01% # Class of executed instruction
system.cpu2.op_class::FloatDiv                      0      0.00%     79.01% # Class of executed instruction
system.cpu2.op_class::FloatSqrt                     0      0.00%     79.01% # Class of executed instruction
system.cpu2.op_class::SimdAdd                       0      0.00%     79.01% # Class of executed instruction
system.cpu2.op_class::SimdAddAcc                    0      0.00%     79.01% # Class of executed instruction
system.cpu2.op_class::SimdAlu                       0      0.00%     79.01% # Class of executed instruction
system.cpu2.op_class::SimdCmp                       0      0.00%     79.01% # Class of executed instruction
system.cpu2.op_class::SimdCvt                       0      0.00%     79.01% # Class of executed instruction
system.cpu2.op_class::SimdMisc                      0      0.00%     79.01% # Class of executed instruction
system.cpu2.op_class::SimdMult                      0      0.00%     79.01% # Class of executed instruction
system.cpu2.op_class::SimdMultAcc                   0      0.00%     79.01% # Class of executed instruction
system.cpu2.op_class::SimdShift                     0      0.00%     79.01% # Class of executed instruction
system.cpu2.op_class::SimdShiftAcc                  0      0.00%     79.01% # Class of executed instruction
system.cpu2.op_class::SimdSqrt                      0      0.00%     79.01% # Class of executed instruction
system.cpu2.op_class::SimdFloatAdd                  0      0.00%     79.01% # Class of executed instruction
system.cpu2.op_class::SimdFloatAlu                  0      0.00%     79.01% # Class of executed instruction
system.cpu2.op_class::SimdFloatCmp                  0      0.00%     79.01% # Class of executed instruction
system.cpu2.op_class::SimdFloatCvt                  0      0.00%     79.01% # Class of executed instruction
system.cpu2.op_class::SimdFloatDiv                  0      0.00%     79.01% # Class of executed instruction
system.cpu2.op_class::SimdFloatMisc                 0      0.00%     79.01% # Class of executed instruction
system.cpu2.op_class::SimdFloatMult                 0      0.00%     79.01% # Class of executed instruction
system.cpu2.op_class::SimdFloatMultAcc              0      0.00%     79.01% # Class of executed instruction
system.cpu2.op_class::SimdFloatSqrt                 0      0.00%     79.01% # Class of executed instruction
system.cpu2.op_class::MemRead                73868967     16.69%     95.70% # Class of executed instruction
system.cpu2.op_class::MemWrite               19031751      4.30%    100.00% # Class of executed instruction
system.cpu2.op_class::IprAccess                     0      0.00%    100.00% # Class of executed instruction
system.cpu2.op_class::InstPrefetch                  0      0.00%    100.00% # Class of executed instruction
system.cpu2.op_class::total                 442614471                       # Class of executed instruction
system.cpu3.apic_clk_domain.clock                8000                       # Clock period in ticks
system.cpu3.numCycles                      1774925029                       # number of cpu cycles simulated
system.cpu3.numWorkItemsStarted                     0                       # number of work items this cpu started
system.cpu3.numWorkItemsCompleted                   0                       # number of work items this cpu completed
system.cpu3.kern.inst.arm                           0                       # number of arm instructions executed
system.cpu3.kern.inst.quiesce                       0                       # number of quiesce instructions executed
system.cpu3.committedInsts                    2234795                       # Number of instructions committed
system.cpu3.committedOps                      4495382                       # Number of ops (including micro ops) committed
system.cpu3.num_int_alu_accesses              4380533                       # Number of integer alu accesses
system.cpu3.num_fp_alu_accesses                   372                       # Number of float alu accesses
system.cpu3.num_func_calls                      93464                       # number of times a function call or return occured
system.cpu3.num_conditional_control_insts       390219                       # number of instructions that are conditional controls
system.cpu3.num_int_insts                     4380533                       # number of integer instructions
system.cpu3.num_fp_insts                          372                       # number of float instructions
system.cpu3.num_int_register_reads            8441488                       # number of times the integer registers were read
system.cpu3.num_int_register_writes           3584983                       # number of times the integer registers were written
system.cpu3.num_fp_register_reads                 596                       # number of times the floating registers were read
system.cpu3.num_fp_register_writes                261                       # number of times the floating registers were written
system.cpu3.num_cc_register_reads             2864106                       # number of times the CC registers were read
system.cpu3.num_cc_register_writes            1713494                       # number of times the CC registers were written
system.cpu3.num_mem_refs                       877183                       # number of memory refs
system.cpu3.num_load_insts                     542923                       # Number of load instructions
system.cpu3.num_store_insts                    334260                       # Number of store instructions
system.cpu3.num_idle_cycles              1760784662.022166                       # Number of idle cycles
system.cpu3.num_busy_cycles              14140366.977834                       # Number of busy cycles
system.cpu3.not_idle_fraction                0.007967                       # Percentage of non-idle cycles
system.cpu3.idle_fraction                    0.992033                       # Percentage of idle cycles
system.cpu3.Branches                           516415                       # Number of branches fetched
system.cpu3.op_class::No_OpClass                36271      0.81%      0.81% # Class of executed instruction
system.cpu3.op_class::IntAlu                  3566557     79.34%     80.14% # Class of executed instruction
system.cpu3.op_class::IntMult                    4162      0.09%     80.24% # Class of executed instruction
system.cpu3.op_class::IntDiv                    11053      0.25%     80.48% # Class of executed instruction
system.cpu3.op_class::FloatAdd                    244      0.01%     80.49% # Class of executed instruction
system.cpu3.op_class::FloatCmp                      0      0.00%     80.49% # Class of executed instruction
system.cpu3.op_class::FloatCvt                      0      0.00%     80.49% # Class of executed instruction
system.cpu3.op_class::FloatMult                     0      0.00%     80.49% # Class of executed instruction
system.cpu3.op_class::FloatDiv                      0      0.00%     80.49% # Class of executed instruction
system.cpu3.op_class::FloatSqrt                     0      0.00%     80.49% # Class of executed instruction
system.cpu3.op_class::SimdAdd                       0      0.00%     80.49% # Class of executed instruction
system.cpu3.op_class::SimdAddAcc                    0      0.00%     80.49% # Class of executed instruction
system.cpu3.op_class::SimdAlu                       0      0.00%     80.49% # Class of executed instruction
system.cpu3.op_class::SimdCmp                       0      0.00%     80.49% # Class of executed instruction
system.cpu3.op_class::SimdCvt                       0      0.00%     80.49% # Class of executed instruction
system.cpu3.op_class::SimdMisc                      0      0.00%     80.49% # Class of executed instruction
system.cpu3.op_class::SimdMult                      0      0.00%     80.49% # Class of executed instruction
system.cpu3.op_class::SimdMultAcc                   0      0.00%     80.49% # Class of executed instruction
system.cpu3.op_class::SimdShift                     0      0.00%     80.49% # Class of executed instruction
system.cpu3.op_class::SimdShiftAcc                  0      0.00%     80.49% # Class of executed instruction
system.cpu3.op_class::SimdSqrt                      0      0.00%     80.49% # Class of executed instruction
system.cpu3.op_class::SimdFloatAdd                  0      0.00%     80.49% # Class of executed instruction
system.cpu3.op_class::SimdFloatAlu                  0      0.00%     80.49% # Class of executed instruction
system.cpu3.op_class::SimdFloatCmp                  0      0.00%     80.49% # Class of executed instruction
system.cpu3.op_class::SimdFloatCvt                  0      0.00%     80.49% # Class of executed instruction
system.cpu3.op_class::SimdFloatDiv                  0      0.00%     80.49% # Class of executed instruction
system.cpu3.op_class::SimdFloatMisc                 0      0.00%     80.49% # Class of executed instruction
system.cpu3.op_class::SimdFloatMult                 0      0.00%     80.49% # Class of executed instruction
system.cpu3.op_class::SimdFloatMultAcc              0      0.00%     80.49% # Class of executed instruction
system.cpu3.op_class::SimdFloatSqrt                 0      0.00%     80.49% # Class of executed instruction
system.cpu3.op_class::MemRead                  542923     12.08%     92.56% # Class of executed instruction
system.cpu3.op_class::MemWrite                 334260      7.44%    100.00% # Class of executed instruction
system.cpu3.op_class::IprAccess                     0      0.00%    100.00% # Class of executed instruction
system.cpu3.op_class::InstPrefetch                  0      0.00%    100.00% # Class of executed instruction
system.cpu3.op_class::total                   4495470                       # Class of executed instruction
system.iobus.trans_dist::ReadReq                  557                       # Transaction distribution
system.iobus.trans_dist::ReadResp                 557                       # Transaction distribution
system.iobus.trans_dist::WriteReq                1905                       # Transaction distribution
system.iobus.trans_dist::WriteResp               1905                       # Transaction distribution
system.iobus.trans_dist::MessageReq                77                       # Transaction distribution
system.iobus.trans_dist::MessageResp               77                       # Transaction distribution
system.iobus.pkt_count_system.pc.south_bridge.io_apic.int_master::system.ruby.l1_cntrl0.sequencer.pio-slave-port           30                       # Packet count per connected master and slave (bytes)
system.iobus.pkt_count_system.pc.south_bridge.io_apic.int_master::system.ruby.l1_cntrl1.sequencer.pio-slave-port           32                       # Packet count per connected master and slave (bytes)
system.iobus.pkt_count_system.pc.south_bridge.io_apic.int_master::system.ruby.l1_cntrl2.sequencer.pio-slave-port           32                       # Packet count per connected master and slave (bytes)
system.iobus.pkt_count_system.pc.south_bridge.io_apic.int_master::system.ruby.l1_cntrl3.sequencer.pio-slave-port           32                       # Packet count per connected master and slave (bytes)
system.iobus.pkt_count_system.pc.south_bridge.io_apic.int_master::total          126                       # Packet count per connected master and slave (bytes)
system.iobus.pkt_count_system.ruby.l1_cntrl0.sequencer.mem-master-port::system.pc.south_bridge.ide.pio          610                       # Packet count per connected master and slave (bytes)
system.iobus.pkt_count_system.ruby.l1_cntrl0.sequencer.mem-master-port::system.pc.south_bridge.io_apic.pio            6                       # Packet count per connected master and slave (bytes)
system.iobus.pkt_count_system.ruby.l1_cntrl0.sequencer.mem-master-port::system.pc.com_1.pio          174                       # Packet count per connected master and slave (bytes)
system.iobus.pkt_count_system.ruby.l1_cntrl0.sequencer.mem-master-port::system.ruby.l1_cntrl0.sequencer.pio-slave-port          494                       # Packet count per connected master and slave (bytes)
system.iobus.pkt_count_system.ruby.l1_cntrl0.sequencer.mem-master-port::system.ruby.l1_cntrl1.sequencer.pio-slave-port            2                       # Packet count per connected master and slave (bytes)
system.iobus.pkt_count_system.ruby.l1_cntrl0.sequencer.mem-master-port::system.ruby.l1_cntrl3.sequencer.pio-slave-port            2                       # Packet count per connected master and slave (bytes)
system.iobus.pkt_count_system.ruby.l1_cntrl0.sequencer.mem-master-port::total         1288                       # Packet count per connected master and slave (bytes)
system.iobus.pkt_count_system.ruby.l1_cntrl1.sequencer.mem-master-port::system.pc.south_bridge.ide.pio          860                       # Packet count per connected master and slave (bytes)
system.iobus.pkt_count_system.ruby.l1_cntrl1.sequencer.mem-master-port::system.pc.south_bridge.io_apic.pio            8                       # Packet count per connected master and slave (bytes)
system.iobus.pkt_count_system.ruby.l1_cntrl1.sequencer.mem-master-port::system.pc.com_1.pio            2                       # Packet count per connected master and slave (bytes)
system.iobus.pkt_count_system.ruby.l1_cntrl1.sequencer.mem-master-port::system.ruby.l1_cntrl0.sequencer.pio-slave-port            2                       # Packet count per connected master and slave (bytes)
system.iobus.pkt_count_system.ruby.l1_cntrl1.sequencer.mem-master-port::system.ruby.l1_cntrl1.sequencer.pio-slave-port          498                       # Packet count per connected master and slave (bytes)
system.iobus.pkt_count_system.ruby.l1_cntrl1.sequencer.mem-master-port::system.ruby.l1_cntrl2.sequencer.pio-slave-port            2                       # Packet count per connected master and slave (bytes)
system.iobus.pkt_count_system.ruby.l1_cntrl1.sequencer.mem-master-port::system.ruby.l1_cntrl3.sequencer.pio-slave-port            2                       # Packet count per connected master and slave (bytes)
system.iobus.pkt_count_system.ruby.l1_cntrl1.sequencer.mem-master-port::total         1374                       # Packet count per connected master and slave (bytes)
system.iobus.pkt_count_system.ruby.l1_cntrl2.sequencer.mem-master-port::system.pc.south_bridge.ide.pio          588                       # Packet count per connected master and slave (bytes)
system.iobus.pkt_count_system.ruby.l1_cntrl2.sequencer.mem-master-port::system.pc.south_bridge.io_apic.pio            8                       # Packet count per connected master and slave (bytes)
system.iobus.pkt_count_system.ruby.l1_cntrl2.sequencer.mem-master-port::system.ruby.l1_cntrl0.sequencer.pio-slave-port            2                       # Packet count per connected master and slave (bytes)
system.iobus.pkt_count_system.ruby.l1_cntrl2.sequencer.mem-master-port::system.ruby.l1_cntrl1.sequencer.pio-slave-port            2                       # Packet count per connected master and slave (bytes)
system.iobus.pkt_count_system.ruby.l1_cntrl2.sequencer.mem-master-port::system.ruby.l1_cntrl2.sequencer.pio-slave-port          498                       # Packet count per connected master and slave (bytes)
system.iobus.pkt_count_system.ruby.l1_cntrl2.sequencer.mem-master-port::system.ruby.l1_cntrl3.sequencer.pio-slave-port            4                       # Packet count per connected master and slave (bytes)
system.iobus.pkt_count_system.ruby.l1_cntrl2.sequencer.mem-master-port::total         1102                       # Packet count per connected master and slave (bytes)
system.iobus.pkt_count_system.ruby.l1_cntrl3.sequencer.mem-master-port::system.pc.south_bridge.ide.pio          656                       # Packet count per connected master and slave (bytes)
system.iobus.pkt_count_system.ruby.l1_cntrl3.sequencer.mem-master-port::system.pc.south_bridge.io_apic.pio            8                       # Packet count per connected master and slave (bytes)
system.iobus.pkt_count_system.ruby.l1_cntrl3.sequencer.mem-master-port::system.ruby.l1_cntrl0.sequencer.pio-slave-port            4                       # Packet count per connected master and slave (bytes)
system.iobus.pkt_count_system.ruby.l1_cntrl3.sequencer.mem-master-port::system.ruby.l1_cntrl1.sequencer.pio-slave-port            2                       # Packet count per connected master and slave (bytes)
system.iobus.pkt_count_system.ruby.l1_cntrl3.sequencer.mem-master-port::system.ruby.l1_cntrl2.sequencer.pio-slave-port            4                       # Packet count per connected master and slave (bytes)
system.iobus.pkt_count_system.ruby.l1_cntrl3.sequencer.mem-master-port::system.ruby.l1_cntrl3.sequencer.pio-slave-port          514                       # Packet count per connected master and slave (bytes)
system.iobus.pkt_count_system.ruby.l1_cntrl3.sequencer.mem-master-port::total         1188                       # Packet count per connected master and slave (bytes)
system.iobus.pkt_count::total                    5078                       # Packet count per connected master and slave (bytes)
system.iobus.pkt_size_system.pc.south_bridge.io_apic.int_master::system.ruby.l1_cntrl0.sequencer.pio-slave-port           60                       # Cumulative packet size per connected master and slave (bytes)
system.iobus.pkt_size_system.pc.south_bridge.io_apic.int_master::system.ruby.l1_cntrl1.sequencer.pio-slave-port           64                       # Cumulative packet size per connected master and slave (bytes)
system.iobus.pkt_size_system.pc.south_bridge.io_apic.int_master::system.ruby.l1_cntrl2.sequencer.pio-slave-port           64                       # Cumulative packet size per connected master and slave (bytes)
system.iobus.pkt_size_system.pc.south_bridge.io_apic.int_master::system.ruby.l1_cntrl3.sequencer.pio-slave-port           64                       # Cumulative packet size per connected master and slave (bytes)
system.iobus.pkt_size_system.pc.south_bridge.io_apic.int_master::total          252                       # Cumulative packet size per connected master and slave (bytes)
system.iobus.pkt_size_system.ruby.l1_cntrl0.sequencer.mem-master-port::system.pc.south_bridge.ide.pio          344                       # Cumulative packet size per connected master and slave (bytes)
system.iobus.pkt_size_system.ruby.l1_cntrl0.sequencer.mem-master-port::system.pc.south_bridge.io_apic.pio           12                       # Cumulative packet size per connected master and slave (bytes)
system.iobus.pkt_size_system.ruby.l1_cntrl0.sequencer.mem-master-port::system.pc.com_1.pio           87                       # Cumulative packet size per connected master and slave (bytes)
system.iobus.pkt_size_system.ruby.l1_cntrl0.sequencer.mem-master-port::system.ruby.l1_cntrl0.sequencer.pio-slave-port          988                       # Cumulative packet size per connected master and slave (bytes)
system.iobus.pkt_size_system.ruby.l1_cntrl0.sequencer.mem-master-port::system.ruby.l1_cntrl1.sequencer.pio-slave-port            4                       # Cumulative packet size per connected master and slave (bytes)
system.iobus.pkt_size_system.ruby.l1_cntrl0.sequencer.mem-master-port::system.ruby.l1_cntrl3.sequencer.pio-slave-port            4                       # Cumulative packet size per connected master and slave (bytes)
system.iobus.pkt_size_system.ruby.l1_cntrl0.sequencer.mem-master-port::total         1439                       # Cumulative packet size per connected master and slave (bytes)
system.iobus.pkt_size_system.ruby.l1_cntrl1.sequencer.mem-master-port::system.pc.south_bridge.ide.pio          490                       # Cumulative packet size per connected master and slave (bytes)
system.iobus.pkt_size_system.ruby.l1_cntrl1.sequencer.mem-master-port::system.pc.south_bridge.io_apic.pio           16                       # Cumulative packet size per connected master and slave (bytes)
system.iobus.pkt_size_system.ruby.l1_cntrl1.sequencer.mem-master-port::system.pc.com_1.pio            1                       # Cumulative packet size per connected master and slave (bytes)
system.iobus.pkt_size_system.ruby.l1_cntrl1.sequencer.mem-master-port::system.ruby.l1_cntrl0.sequencer.pio-slave-port            4                       # Cumulative packet size per connected master and slave (bytes)
system.iobus.pkt_size_system.ruby.l1_cntrl1.sequencer.mem-master-port::system.ruby.l1_cntrl1.sequencer.pio-slave-port          996                       # Cumulative packet size per connected master and slave (bytes)
system.iobus.pkt_size_system.ruby.l1_cntrl1.sequencer.mem-master-port::system.ruby.l1_cntrl2.sequencer.pio-slave-port            4                       # Cumulative packet size per connected master and slave (bytes)
system.iobus.pkt_size_system.ruby.l1_cntrl1.sequencer.mem-master-port::system.ruby.l1_cntrl3.sequencer.pio-slave-port            4                       # Cumulative packet size per connected master and slave (bytes)
system.iobus.pkt_size_system.ruby.l1_cntrl1.sequencer.mem-master-port::total         1515                       # Cumulative packet size per connected master and slave (bytes)
system.iobus.pkt_size_system.ruby.l1_cntrl2.sequencer.mem-master-port::system.pc.south_bridge.ide.pio          330                       # Cumulative packet size per connected master and slave (bytes)
system.iobus.pkt_size_system.ruby.l1_cntrl2.sequencer.mem-master-port::system.pc.south_bridge.io_apic.pio           16                       # Cumulative packet size per connected master and slave (bytes)
system.iobus.pkt_size_system.ruby.l1_cntrl2.sequencer.mem-master-port::system.ruby.l1_cntrl0.sequencer.pio-slave-port            4                       # Cumulative packet size per connected master and slave (bytes)
system.iobus.pkt_size_system.ruby.l1_cntrl2.sequencer.mem-master-port::system.ruby.l1_cntrl1.sequencer.pio-slave-port            4                       # Cumulative packet size per connected master and slave (bytes)
system.iobus.pkt_size_system.ruby.l1_cntrl2.sequencer.mem-master-port::system.ruby.l1_cntrl2.sequencer.pio-slave-port          996                       # Cumulative packet size per connected master and slave (bytes)
system.iobus.pkt_size_system.ruby.l1_cntrl2.sequencer.mem-master-port::system.ruby.l1_cntrl3.sequencer.pio-slave-port            8                       # Cumulative packet size per connected master and slave (bytes)
system.iobus.pkt_size_system.ruby.l1_cntrl2.sequencer.mem-master-port::total         1358                       # Cumulative packet size per connected master and slave (bytes)
system.iobus.pkt_size_system.ruby.l1_cntrl3.sequencer.mem-master-port::system.pc.south_bridge.ide.pio          370                       # Cumulative packet size per connected master and slave (bytes)
system.iobus.pkt_size_system.ruby.l1_cntrl3.sequencer.mem-master-port::system.pc.south_bridge.io_apic.pio           16                       # Cumulative packet size per connected master and slave (bytes)
system.iobus.pkt_size_system.ruby.l1_cntrl3.sequencer.mem-master-port::system.ruby.l1_cntrl0.sequencer.pio-slave-port            8                       # Cumulative packet size per connected master and slave (bytes)
system.iobus.pkt_size_system.ruby.l1_cntrl3.sequencer.mem-master-port::system.ruby.l1_cntrl1.sequencer.pio-slave-port            4                       # Cumulative packet size per connected master and slave (bytes)
system.iobus.pkt_size_system.ruby.l1_cntrl3.sequencer.mem-master-port::system.ruby.l1_cntrl2.sequencer.pio-slave-port            8                       # Cumulative packet size per connected master and slave (bytes)
system.iobus.pkt_size_system.ruby.l1_cntrl3.sequencer.mem-master-port::system.ruby.l1_cntrl3.sequencer.pio-slave-port         1028                       # Cumulative packet size per connected master and slave (bytes)
system.iobus.pkt_size_system.ruby.l1_cntrl3.sequencer.mem-master-port::total         1434                       # Cumulative packet size per connected master and slave (bytes)
system.iobus.pkt_size::total                     5998                       # Cumulative packet size per connected master and slave (bytes)
system.iobus.reqLayer2.occupancy              2367500                       # Layer occupancy (ticks)
system.iobus.reqLayer2.utilization                0.0                       # Layer utilization (%)
system.iobus.reqLayer8.occupancy                26996                       # Layer occupancy (ticks)
system.iobus.reqLayer8.utilization                0.0                       # Layer utilization (%)
system.iobus.reqLayer12.occupancy              113000                       # Layer occupancy (ticks)
system.iobus.reqLayer12.utilization               0.0                       # Layer utilization (%)
system.iobus.reqLayer17.occupancy              610484                       # Layer occupancy (ticks)
system.iobus.reqLayer17.utilization               0.0                       # Layer utilization (%)
system.iobus.reqLayer18.occupancy              607982                       # Layer occupancy (ticks)
system.iobus.reqLayer18.utilization               0.0                       # Layer utilization (%)
system.iobus.reqLayer19.occupancy              722751                       # Layer occupancy (ticks)
system.iobus.reqLayer19.utilization               0.0                       # Layer utilization (%)
system.iobus.reqLayer20.occupancy              629484                       # Layer occupancy (ticks)
system.iobus.reqLayer20.utilization               0.0                       # Layer utilization (%)
system.iobus.respLayer0.occupancy              108441                       # Layer occupancy (ticks)
system.iobus.respLayer0.utilization               0.0                       # Layer utilization (%)
system.iobus.respLayer2.occupancy              943500                       # Layer occupancy (ticks)
system.iobus.respLayer2.utilization               0.0                       # Layer utilization (%)
system.iobus.respLayer4.occupancy              957000                       # Layer occupancy (ticks)
system.iobus.respLayer4.utilization               0.0                       # Layer utilization (%)
system.iobus.respLayer6.occupancy              789000                       # Layer occupancy (ticks)
system.iobus.respLayer6.utilization               0.0                       # Layer utilization (%)
system.iobus.respLayer8.occupancy              845500                       # Layer occupancy (ticks)
[...]
system.ruby.DMA_Controller.Data::total          57138                      
system.ruby.DMA_Controller.Ack           |        2496    100.00%    100.00% |           0      0.00%    100.00%
system.ruby.DMA_Controller.Ack::total            2496                      
system.ruby.DMA_Controller.READY.ReadRequest |       57138    100.00%    100.00% |           0      0.00%    100.00%
system.ruby.DMA_Controller.READY.ReadRequest::total        57138                      
system.ruby.DMA_Controller.READY.WriteRequest |        2496    100.00%    100.00% |           0      0.00%    100.00%
system.ruby.DMA_Controller.READY.WriteRequest::total         2496                      
system.ruby.DMA_Controller.BUSY_RD.Data  |       57138    100.00%    100.00% |           0      0.00%    100.00%
system.ruby.DMA_Controller.BUSY_RD.Data::total        57138                      
system.ruby.DMA_Controller.BUSY_WR.Ack   |        2496    100.00%    100.00% |           0      0.00%    100.00%
system.ruby.DMA_Controller.BUSY_WR.Ack::total         2496                      
system.ruby.L1Cache_Controller.Load      |      664800      0.52%      0.52% |    37637338     29.52%     30.04% |    88167368     69.15%     99.19% |     1030389      0.81%    100.00%
system.ruby.L1Cache_Controller.Load::total    127499895                      
system.ruby.L1Cache_Controller.Ifetch    |     3287572      0.64%      0.64% |   138616639     27.04%     27.68% |   364887502     71.18%     98.86% |     5818453      1.14%    100.00%
system.ruby.L1Cache_Controller.Ifetch::total    512610166                      
system.ruby.L1Cache_Controller.Store     |      510194      1.21%      1.21% |    16331569     38.68%     39.89% |    24567694     58.19%     98.07% |      813612      1.93%    100.00%
system.ruby.L1Cache_Controller.Store::total     42223069                      
system.ruby.L1Cache_Controller.Inv       |      112827     28.03%     28.03% |       88493     21.98%     50.01% |       97683     24.26%     74.27% |      103588     25.73%    100.00%
system.ruby.L1Cache_Controller.Inv::total       402591                      
system.ruby.L1Cache_Controller.L1_Replacement |       62152      0.47%      0.47% |     5728878     43.32%     43.79% |     7328253     55.41%     99.20% |      105847      0.80%    100.00%
system.ruby.L1Cache_Controller.L1_Replacement::total     13225130                      
system.ruby.L1Cache_Controller.Fwd_GETX  |        1217     28.08%     28.08% |        1231     28.40%     56.48% |        1137     26.23%     82.72% |         749     17.28%    100.00%
system.ruby.L1Cache_Controller.Fwd_GETX::total         4334                      
system.ruby.L1Cache_Controller.Fwd_GETS  |        7933     32.70%     32.70% |        7314     30.15%     62.86% |        6074     25.04%     87.90% |        2936     12.10%    100.00%
system.ruby.L1Cache_Controller.Fwd_GETS::total        24257                      
system.ruby.L1Cache_Controller.Data      |         390     37.64%     37.64% |         155     14.96%     52.61% |         193     18.63%     71.24% |         298     28.76%    100.00%
system.ruby.L1Cache_Controller.Data::total         1036                      
system.ruby.L1Cache_Controller.Data_Exclusive |       29126      0.31%      0.31% |     4336617     46.40%     46.71% |     4936258     52.81%     99.52% |       44565      0.48%    100.00%
system.ruby.L1Cache_Controller.Data_Exclusive::total      9346566                      
system.ruby.L1Cache_Controller.DataS_fromL1 |        7656     31.56%     31.56% |        3314     13.66%     45.22% |        5157     21.26%     66.48% |        8130     33.52%    100.00%
system.ruby.L1Cache_Controller.DataS_fromL1::total        24257                      
system.ruby.L1Cache_Controller.Data_all_Acks |      113660      2.74%      2.74% |     1449380     34.88%     37.62% |     2461254     59.24%     96.86% |      130557      3.14%    100.00%
system.ruby.L1Cache_Controller.Data_all_Acks::total      4154851                      
system.ruby.L1Cache_Controller.Ack       |        5387     40.06%     40.06% |        2789     20.74%     60.80% |        2220     16.51%     77.31% |        3052     22.69%    100.00%
system.ruby.L1Cache_Controller.Ack::total        13448                      
system.ruby.L1Cache_Controller.Ack_all   |        3325     32.58%     32.58% |        2334     22.87%     55.45% |        1829     17.92%     73.38% |        2717     26.62%    100.00%
system.ruby.L1Cache_Controller.Ack_all::total        10205                      
system.ruby.L1Cache_Controller.WB_Ack    |       18960      0.15%      0.15% |     5661169     43.65%     43.80% |     7243160     55.85%     99.64% |       46371      0.36%    100.00%
system.ruby.L1Cache_Controller.WB_Ack::total     12969660                      
system.ruby.L1Cache_Controller.NP.Load   |       20379      0.22%      0.22% |     4331243     46.25%     46.46% |     4972285     53.09%     99.56% |       41491      0.44%    100.00%
system.ruby.L1Cache_Controller.NP.Load::total      9365398                      
system.ruby.L1Cache_Controller.NP.Ifetch |       33311     19.30%     19.30% |       56465     32.71%     52.01% |       35238     20.41%     72.42% |       47612     27.58%    100.00%
system.ruby.L1Cache_Controller.NP.Ifetch::total       172626                      
system.ruby.L1Cache_Controller.NP.Store  |        8592      0.23%      0.23% |     1341170     36.37%     36.60% |     2321299     62.95%     99.55% |       16744      0.45%    100.00%
system.ruby.L1Cache_Controller.NP.Store::total      3687805                      
system.ruby.L1Cache_Controller.NP.Inv    |       11073     18.84%     18.84% |       17948     30.53%     49.37% |       14605     24.85%     74.22% |       15157     25.78%    100.00%
system.ruby.L1Cache_Controller.NP.Inv::total        58783                      
system.ruby.L1Cache_Controller.I.Load    |       20782     31.39%     31.39% |       14186     21.43%     52.82% |       10642     16.07%     68.89% |       20594     31.11%    100.00%
system.ruby.L1Cache_Controller.I.Load::total        66204                      
system.ruby.L1Cache_Controller.I.Ifetch  |       54444     27.33%     27.33% |       39315     19.74%     47.07% |       59331     29.79%     76.86% |       46089     23.14%    100.00%
system.ruby.L1Cache_Controller.I.Ifetch::total       199179                      
system.ruby.L1Cache_Controller.I.Store   |       13324     37.54%     37.54% |        7086     19.96%     57.50% |        4067     11.46%     68.96% |       11020     31.04%    100.00%
system.ruby.L1Cache_Controller.I.Store::total        35497                      
system.ruby.L1Cache_Controller.I.L1_Replacement |       13879     29.75%     29.75% |       10712     22.96%     52.72% |       10258     21.99%     74.71% |       11799     25.29%    100.00%
system.ruby.L1Cache_Controller.I.L1_Replacement::total        46648                      
system.ruby.L1Cache_Controller.S.Load    |       93802     10.19%     10.19% |      149743     16.27%     26.45% |      547812     59.50%     85.96% |      129281     14.04%    100.00%
system.ruby.L1Cache_Controller.S.Load::total       920638                      
system.ruby.L1Cache_Controller.S.Ifetch  |     3199817      0.62%      0.62% |   138520859     27.04%     27.67% |   364792933     71.22%     98.88% |     5724750      1.12%    100.00%
system.ruby.L1Cache_Controller.S.Ifetch::total    512238359                      
system.ruby.L1Cache_Controller.S.Store   |        2935     32.01%     32.01% |        2180     23.77%     55.78% |        1636     17.84%     73.62% |        2419     26.38%    100.00%
system.ruby.L1Cache_Controller.S.Store::total         9170                      
system.ruby.L1Cache_Controller.S.Inv     |       75662     28.75%     28.75% |       52779     20.05%     48.80% |       70568     26.81%     75.62% |       64169     24.38%    100.00%
system.ruby.L1Cache_Controller.S.Inv::total       263178                      
system.ruby.L1Cache_Controller.S.L1_Replacement |       29313     14.04%     14.04% |       56997     27.29%     41.33% |       74835     35.84%     77.17% |       47677     22.83%    100.00%
system.ruby.L1Cache_Controller.S.L1_Replacement::total       208822                      
system.ruby.L1Cache_Controller.E.Load    |      104100      0.12%      0.12% |    22696226     25.30%     25.42% |    66681796     74.33%     99.75% |      222710      0.25%    100.00%
system.ruby.L1Cache_Controller.E.Load::total     89704832                      
system.ruby.L1Cache_Controller.E.Store   |        8485      0.73%      0.73% |      991148     85.01%     85.74% |      146343     12.55%     98.29% |       19904      1.71%    100.00%
system.ruby.L1Cache_Controller.E.Store::total      1165880                      
system.ruby.L1Cache_Controller.E.Inv     |        8635     28.31%     28.31% |        7236     23.72%     52.04% |        6059     19.87%     71.90% |        8570     28.10%    100.00%
system.ruby.L1Cache_Controller.E.Inv::total        30500                      
system.ruby.L1Cache_Controller.E.L1_Replacement |        7001      0.09%      0.09% |     3332832     40.98%     41.07% |     4778349     58.76%     99.82% |       14255      0.18%    100.00%
system.ruby.L1Cache_Controller.E.L1_Replacement::total      8132437                      
system.ruby.L1Cache_Controller.E.Fwd_GETX |         731     34.11%     34.11% |         632     29.49%     63.60% |         610     28.46%     92.07% |         170      7.93%    100.00%
system.ruby.L1Cache_Controller.E.Fwd_GETX::total         2143                      
system.ruby.L1Cache_Controller.E.Fwd_GETS |        4299     27.77%     27.77% |        5200     33.59%     61.36% |        4744     30.64%     92.00% |        1239      8.00%    100.00%
system.ruby.L1Cache_Controller.E.Fwd_GETS::total        15482                      
system.ruby.L1Cache_Controller.M.Load    |      425737      1.55%      1.55% |    10445940     38.06%     39.62% |    15954833     58.14%     97.75% |      616313      2.25%    100.00%
system.ruby.L1Cache_Controller.M.Load::total     27442823                      
system.ruby.L1Cache_Controller.M.Store   |      476858      1.28%      1.28% |    13989985     37.48%     38.76% |    22094349     59.19%     97.95% |      763525      2.05%    100.00%
system.ruby.L1Cache_Controller.M.Store::total     37324717                      
system.ruby.L1Cache_Controller.M.Inv     |       17457     34.82%     34.82% |       10529     21.00%     55.83% |        6451     12.87%     68.70% |       15692     31.30%    100.00%
system.ruby.L1Cache_Controller.M.Inv::total        50129                      
system.ruby.L1Cache_Controller.M.L1_Replacement |       11959      0.25%      0.25% |     2328337     48.13%     48.38% |     2464811     50.96%     99.34% |       32116      0.66%    100.00%
system.ruby.L1Cache_Controller.M.L1_Replacement::total      4837223                      
system.ruby.L1Cache_Controller.M.Fwd_GETX |         486     22.18%     22.18% |         599     27.34%     49.52% |         527     24.05%     73.57% |         579     26.43%    100.00%
system.ruby.L1Cache_Controller.M.Fwd_GETX::total         2191                      
system.ruby.L1Cache_Controller.M.Fwd_GETS |        3634     41.41%     41.41% |        2114     24.09%     65.50% |        1330     15.16%     80.66% |        1697     19.34%    100.00%
system.ruby.L1Cache_Controller.M.Fwd_GETS::total         8775                      
system.ruby.L1Cache_Controller.IS.Data_Exclusive |       29126      0.31%      0.31% |     4336617     46.40%     46.71% |     4936258     52.81%     99.52% |       44565      0.48%    100.00%
system.ruby.L1Cache_Controller.IS.Data_Exclusive::total      9346566                      
system.ruby.L1Cache_Controller.IS.DataS_fromL1 |        7656     31.56%     31.56% |        3314     13.66%     45.22% |        5157     21.26%     66.48% |        8130     33.52%    100.00%
system.ruby.L1Cache_Controller.IS.DataS_fromL1::total        24257                      
system.ruby.L1Cache_Controller.IS.Data_all_Acks |       92134     21.30%     21.30% |      101278     23.41%     44.71% |      136081     31.46%     76.17% |      103091     23.83%    100.00%
system.ruby.L1Cache_Controller.IS.Data_all_Acks::total       432584                      
system.ruby.L1Cache_Controller.IM.Data   |         390     37.64%     37.64% |         155     14.96%     52.61% |         193     18.63%     71.24% |         298     28.76%    100.00%
system.ruby.L1Cache_Controller.IM.Data::total         1036                      
system.ruby.L1Cache_Controller.IM.Data_all_Acks |       21526      0.58%      0.58% |     1348102     36.22%     36.80% |     2325173     62.47%     99.26% |       27466      0.74%    100.00%
system.ruby.L1Cache_Controller.IM.Data_all_Acks::total      3722267                      
system.ruby.L1Cache_Controller.SM.Inv    |           0      0.00%      0.00% |           1    100.00%    100.00% |           0      0.00%    100.00% |           0      0.00%    100.00%
system.ruby.L1Cache_Controller.SM.Inv::total            1                      
system.ruby.L1Cache_Controller.SM.Ack    |        5387     40.06%     40.06% |        2789     20.74%     60.80% |        2220     16.51%     77.31% |        3052     22.69%    100.00%
system.ruby.L1Cache_Controller.SM.Ack::total        13448                      
system.ruby.L1Cache_Controller.SM.Ack_all |        3325     32.58%     32.58% |        2334     22.87%     55.45% |        1829     17.92%     73.38% |        2717     26.62%    100.00%
system.ruby.L1Cache_Controller.SM.Ack_all::total        10205                      
system.ruby.L1Cache_Controller.M_I.Ifetch |           0      0.00%      0.00% |           0      0.00%      0.00% |           0      0.00%      0.00% |           2    100.00%    100.00%
system.ruby.L1Cache_Controller.M_I.Ifetch::total            2                      
system.ruby.L1Cache_Controller.M_I.WB_Ack |       18960      0.15%      0.15% |     5661169     43.65%     43.80% |     7243160     55.85%     99.64% |       46371      0.36%    100.00%
system.ruby.L1Cache_Controller.M_I.WB_Ack::total     12969660                      
system.ruby.L2Cache_Controller.L1_GET_INSTR       371811      0.00%      0.00%
system.ruby.L2Cache_Controller.L1_GETS        9431656      0.00%      0.00%
system.ruby.L2Cache_Controller.L1_GETX        3723310      0.00%      0.00%
system.ruby.L2Cache_Controller.L1_UPGRADE         9170      0.00%      0.00%
system.ruby.L2Cache_Controller.L1_PUTX       12969660      0.00%      0.00%
system.ruby.L2Cache_Controller.L2_Replacement      4392009      0.00%      0.00%
system.ruby.L2Cache_Controller.L2_Replacement_clean      4547903      0.00%      0.00%
system.ruby.L2Cache_Controller.Mem_Data       8940858      0.00%      0.00%
system.ruby.L2Cache_Controller.Mem_Ack        8940851      0.00%      0.00%
system.ruby.L2Cache_Controller.WB_Data          58904      0.00%      0.00%
system.ruby.L2Cache_Controller.WB_Data_clean        15482      0.00%      0.00%
system.ruby.L2Cache_Controller.Ack             160874      0.00%      0.00%
system.ruby.L2Cache_Controller.Ack_all         177104      0.00%      0.00%
system.ruby.L2Cache_Controller.Unblock          24257      0.00%      0.00%
system.ruby.L2Cache_Controller.Exclusive_Unblock     13079038      0.00%      0.00%
system.ruby.L2Cache_Controller.MEM_Inv           1878      0.00%      0.00%
system.ruby.L2Cache_Controller.NP.L1_GET_INSTR       133274      0.00%      0.00%
system.ruby.L2Cache_Controller.NP.L1_GETS      5363681      0.00%      0.00%
system.ruby.L2Cache_Controller.NP.L1_GETX      3443903      0.00%      0.00%
system.ruby.L2Cache_Controller.SS.L1_GET_INSTR       238501      0.00%      0.00%
system.ruby.L2Cache_Controller.SS.L1_GETS        60747      0.00%      0.00%
system.ruby.L2Cache_Controller.SS.L1_GETX         1036      0.00%      0.00%
system.ruby.L2Cache_Controller.SS.L1_UPGRADE         9169      0.00%      0.00%
system.ruby.L2Cache_Controller.SS.L2_Replacement         3470      0.00%      0.00%
system.ruby.L2Cache_Controller.SS.L2_Replacement_clean       143134      0.00%      0.00%
system.ruby.L2Cache_Controller.M.L1_GET_INSTR           20      0.00%      0.00%
system.ruby.L2Cache_Controller.M.L1_GETS      3982901      0.00%      0.00%
system.ruby.L2Cache_Controller.M.L1_GETX       274030      0.00%      0.00%
system.ruby.L2Cache_Controller.M.L2_Replacement      4384414      0.00%      0.00%
system.ruby.L2Cache_Controller.M.L2_Replacement_clean      4328464      0.00%      0.00%
system.ruby.L2Cache_Controller.M.MEM_Inv          740      0.00%      0.00%
system.ruby.L2Cache_Controller.MT.L1_GETS        24257      0.00%      0.00%
system.ruby.L2Cache_Controller.MT.L1_GETX         4334      0.00%      0.00%
system.ruby.L2Cache_Controller.MT.L1_PUTX     12969660      0.00%      0.00%
system.ruby.L2Cache_Controller.MT.L2_Replacement         4125      0.00%      0.00%
system.ruby.L2Cache_Controller.MT.L2_Replacement_clean        76305      0.00%      0.00%
system.ruby.L2Cache_Controller.MT.MEM_Inv          199      0.00%      0.00%
system.ruby.L2Cache_Controller.M_I.L1_GET_INSTR            6      0.00%      0.00%
system.ruby.L2Cache_Controller.M_I.L1_GETS            4      0.00%      0.00%
system.ruby.L2Cache_Controller.M_I.L1_GETX            2      0.00%      0.00%
system.ruby.L2Cache_Controller.M_I.Mem_Ack      8940851      0.00%      0.00%
system.ruby.L2Cache_Controller.M_I.MEM_Inv          740      0.00%      0.00%
system.ruby.L2Cache_Controller.MT_I.WB_Data         3227      0.00%      0.00%
system.ruby.L2Cache_Controller.MT_I.Ack_all         1097      0.00%      0.00%
system.ruby.L2Cache_Controller.MT_I.MEM_Inv          199      0.00%      0.00%
system.ruby.L2Cache_Controller.MCT_I.WB_Data        46902      0.00%      0.00%
system.ruby.L2Cache_Controller.MCT_I.Ack_all        29403      0.00%      0.00%
system.ruby.L2Cache_Controller.I_I.Ack         156755      0.00%      0.00%
system.ruby.L2Cache_Controller.I_I.Ack_all       143134      0.00%      0.00%
system.ruby.L2Cache_Controller.S_I.Ack           4119      0.00%      0.00%
system.ruby.L2Cache_Controller.S_I.Ack_all         3470      0.00%      0.00%
system.ruby.L2Cache_Controller.ISS.L1_GETS           16      0.00%      0.00%
system.ruby.L2Cache_Controller.ISS.Mem_Data      5363665      0.00%      0.00%
system.ruby.L2Cache_Controller.IS.L1_GET_INSTR           10      0.00%      0.00%
system.ruby.L2Cache_Controller.IS.Mem_Data       133290      0.00%      0.00%
system.ruby.L2Cache_Controller.IM.Mem_Data      3443903      0.00%      0.00%
system.ruby.L2Cache_Controller.SS_MB.L1_GETS           29      0.00%      0.00%
system.ruby.L2Cache_Controller.SS_MB.L1_GETX            1      0.00%      0.00%
system.ruby.L2Cache_Controller.SS_MB.L1_UPGRADE            1      0.00%      0.00%
system.ruby.L2Cache_Controller.SS_MB.Exclusive_Unblock        10205      0.00%      0.00%
system.ruby.L2Cache_Controller.MT_MB.L1_GETS           17      0.00%      0.00%
system.ruby.L2Cache_Controller.MT_MB.L1_GETX            3      0.00%      0.00%
system.ruby.L2Cache_Controller.MT_MB.Exclusive_Unblock     13068833      0.00%      0.00%
system.ruby.L2Cache_Controller.MT_IIB.L1_GETS            4      0.00%      0.00%
system.ruby.L2Cache_Controller.MT_IIB.L1_GETX            1      0.00%      0.00%
system.ruby.L2Cache_Controller.MT_IIB.WB_Data         8739      0.00%      0.00%
system.ruby.L2Cache_Controller.MT_IIB.WB_Data_clean        15436      0.00%      0.00%
system.ruby.L2Cache_Controller.MT_IIB.Unblock           82      0.00%      0.00%
system.ruby.L2Cache_Controller.MT_IB.WB_Data           36      0.00%      0.00%
system.ruby.L2Cache_Controller.MT_IB.WB_Data_clean           46      0.00%      0.00%
system.ruby.L2Cache_Controller.MT_SB.Unblock        24175      0.00%      0.00%

---------- End Simulation Statistics   ----------
