
---------- Begin Simulation Statistics ----------
sim_seconds                                  0.815860                       # Number of seconds simulated
sim_ticks                                815859796500                       # Number of ticks simulated
final_tick                               54342322862001                       # Number of ticks from beginning of simulation (restored from checkpoints and never reset)
sim_freq                                 1000000000000                       # Frequency of simulated ticks
host_inst_rate                                 110636                       # Simulator instruction rate (inst/s)
host_op_rate                                   183239                       # Simulator op (including micro ops) rate (op/s)
host_tick_rate                              322444572                       # Simulator tick rate (ticks/s)
host_mem_usage                                1870644                       # Number of bytes of host memory used
host_seconds                                  2530.23                       # Real time elapsed on the host
sim_insts                                   279934662                       # Number of instructions simulated
sim_ops                                     463638441                       # Number of ops (including micro ops) simulated
system.voltage_domain.voltage                       1                       # Voltage in Volts
system.clk_domain.clock                          1000                       # Clock period in ticks
system.mem_ctrls.bytes_read::ruby.dir_cntrl0    243810560                       # Number of bytes read from this memory
system.mem_ctrls.bytes_read::total          243810560                       # Number of bytes read from this memory
system.mem_ctrls.bytes_written::ruby.dir_cntrl0    130496832                       # Number of bytes written to this memory
system.mem_ctrls.bytes_written::total       130496832                       # Number of bytes written to this memory
system.mem_ctrls.num_reads::ruby.dir_cntrl0      3809540                       # Number of read requests responded to by this memory
system.mem_ctrls.num_reads::total             3809540                       # Number of read requests responded to by this memory
system.mem_ctrls.num_writes::ruby.dir_cntrl0      2039013                       # Number of write requests responded to by this memory
system.mem_ctrls.num_writes::total            2039013                       # Number of write requests responded to by this memory
system.mem_ctrls.bw_read::ruby.dir_cntrl0    298838797                       # Total read bandwidth from this memory (bytes/s)
system.mem_ctrls.bw_read::total             298838797                       # Total read bandwidth from this memory (bytes/s)
system.mem_ctrls.bw_write::ruby.dir_cntrl0    159950071                       # Write bandwidth from this memory (bytes/s)
system.mem_ctrls.bw_write::total            159950071                       # Write bandwidth from this memory (bytes/s)
system.mem_ctrls.bw_total::ruby.dir_cntrl0    458788867                       # Total bandwidth to/from this memory (bytes/s)
system.mem_ctrls.bw_total::total            458788867                       # Total bandwidth to/from this memory (bytes/s)
system.mem_ctrls.readReqs                     3809540                       # Number of read requests accepted
system.mem_ctrls.writeReqs                    2039013                       # Number of write requests accepted
system.mem_ctrls.readBursts                   3809540                       # Number of DRAM read bursts, including those serviced by the write queue
system.mem_ctrls.writeBursts                  2039013                       # Number of DRAM write bursts, including those merged in the write queue
system.mem_ctrls.bytesReadDRAM              243719872                       # Total number of bytes read from DRAM
system.mem_ctrls.bytesReadWrQ                   90688                       # Total number of bytes read from write queue
system.mem_ctrls.bytesWritten               130496384                       # Total number of bytes written to DRAM
system.mem_ctrls.bytesReadSys               243810560                       # Total read bytes from the system interface side
system.mem_ctrls.bytesWrittenSys            130496832                       # Total written bytes from the system interface side
system.mem_ctrls.servicedByWrQ                   1417                       # Number of DRAM read bursts serviced by the write queue
system.mem_ctrls.mergedWrBursts                     2                       # Number of DRAM write bursts merged with an existing one
system.mem_ctrls.neitherReadNorWriteReqs            0                       # Number of requests that are neither read nor write
system.mem_ctrls.perBankRdBursts::0            234998                       # Per bank write bursts
system.mem_ctrls.perBankRdBursts::1            229398                       # Per bank write bursts
system.mem_ctrls.perBankRdBursts::2            227844                       # Per bank write bursts
system.mem_ctrls.perBankRdBursts::3            230951                       # Per bank write bursts
system.mem_ctrls.perBankRdBursts::4            248411                       # Per bank write bursts
system.mem_ctrls.perBankRdBursts::5            253013                       # Per bank write bursts
system.mem_ctrls.perBankRdBursts::6            240027                       # Per bank write bursts
system.mem_ctrls.perBankRdBursts::7            230703                       # Per bank write bursts
system.mem_ctrls.perBankRdBursts::8            251321                       # Per bank write bursts
system.mem_ctrls.perBankRdBursts::9            238029                       # Per bank write bursts
system.mem_ctrls.perBankRdBursts::10           236118                       # Per bank write bursts
system.mem_ctrls.perBankRdBursts::11           237763                       # Per bank write bursts
system.mem_ctrls.perBankRdBursts::12           236144                       # Per bank write bursts
system.mem_ctrls.perBankRdBursts::13           239850                       # Per bank write bursts
system.mem_ctrls.perBankRdBursts::14           235534                       # Per bank write bursts
system.mem_ctrls.perBankRdBursts::15           238019                       # Per bank write bursts
system.mem_ctrls.perBankWrBursts::0            125578                       # Per bank write bursts
system.mem_ctrls.perBankWrBursts::1            128131                       # Per bank write bursts
system.mem_ctrls.perBankWrBursts::2            125680                       # Per bank write bursts
system.mem_ctrls.perBankWrBursts::3            125512                       # Per bank write bursts
system.mem_ctrls.perBankWrBursts::4            128214                       # Per bank write bursts
system.mem_ctrls.perBankWrBursts::5            130970                       # Per bank write bursts
system.mem_ctrls.perBankWrBursts::6            132298                       # Per bank write bursts
system.mem_ctrls.perBankWrBursts::7            126118                       # Per bank write bursts
system.mem_ctrls.perBankWrBursts::8            131476                       # Per bank write bursts
system.mem_ctrls.perBankWrBursts::9            126730                       # Per bank write bursts
system.mem_ctrls.perBankWrBursts::10           124912                       # Per bank write bursts
system.mem_ctrls.perBankWrBursts::11           127110                       # Per bank write bursts
system.mem_ctrls.perBankWrBursts::12           126315                       # Per bank write bursts
system.mem_ctrls.perBankWrBursts::13           129014                       # Per bank write bursts
system.mem_ctrls.perBankWrBursts::14           125376                       # Per bank write bursts
system.mem_ctrls.perBankWrBursts::15           125572                       # Per bank write bursts
system.mem_ctrls.numRdRetry                         0                       # Number of times read queue was full causing retry
system.mem_ctrls.numWrRetry                         0                       # Number of times write queue was full causing retry
system.mem_ctrls.totGap                  815859737500                       # Total gap between requests
system.mem_ctrls.readPktSize::0                     0                       # Read request sizes (log2)
system.mem_ctrls.readPktSize::1                     0                       # Read request sizes (log2)
system.mem_ctrls.readPktSize::2                     0                       # Read request sizes (log2)
system.mem_ctrls.readPktSize::3                     0                       # Read request sizes (log2)
system.mem_ctrls.readPktSize::4                     0                       # Read request sizes (log2)
system.mem_ctrls.readPktSize::5                     0                       # Read request sizes (log2)
system.mem_ctrls.readPktSize::6               3809540                       # Read request sizes (log2)
system.mem_ctrls.writePktSize::0                    0                       # Write request sizes (log2)
system.mem_ctrls.writePktSize::1                    0                       # Write request sizes (log2)
system.mem_ctrls.writePktSize::2                    0                       # Write request sizes (log2)
system.mem_ctrls.writePktSize::3                    0                       # Write request sizes (log2)
system.mem_ctrls.writePktSize::4                    0                       # Write request sizes (log2)
system.mem_ctrls.writePktSize::5                    0                       # Write request sizes (log2)
system.mem_ctrls.writePktSize::6              2039013                       # Write request sizes (log2)
system.mem_ctrls.rdQLenPdf::0                 3769912                       # What read queue length does an incoming req see
system.mem_ctrls.rdQLenPdf::1                   37964                       # What read queue length does an incoming req see
system.mem_ctrls.rdQLenPdf::2                     233                       # What read queue length does an incoming req see
system.mem_ctrls.rdQLenPdf::3                      14                       # What read queue length does an incoming req see
system.mem_ctrls.rdQLenPdf::4                       0                       # What read queue length does an incoming req see
system.mem_ctrls.rdQLenPdf::5                       0                       # What read queue length does an incoming req see
system.mem_ctrls.rdQLenPdf::6                       0                       # What read queue length does an incoming req see
system.mem_ctrls.rdQLenPdf::7                       0                       # What read queue length does an incoming req see
system.mem_ctrls.rdQLenPdf::8                       0                       # What read queue length does an incoming req see
system.mem_ctrls.rdQLenPdf::9                       0                       # What read queue length does an incoming req see
system.mem_ctrls.rdQLenPdf::10                      0                       # What read queue length does an incoming req see
system.mem_ctrls.rdQLenPdf::11                      0                       # What read queue length does an incoming req see
system.mem_ctrls.rdQLenPdf::12                      0                       # What read queue length does an incoming req see
system.mem_ctrls.rdQLenPdf::13                      0                       # What read queue length does an incoming req see
system.mem_ctrls.rdQLenPdf::14                      0                       # What read queue length does an incoming req see
system.mem_ctrls.rdQLenPdf::15                      0                       # What read queue length does an incoming req see
system.mem_ctrls.rdQLenPdf::16                      0                       # What read queue length does an incoming req see
system.mem_ctrls.rdQLenPdf::17                      0                       # What read queue length does an incoming req see
system.mem_ctrls.rdQLenPdf::18                      0                       # What read queue length does an incoming req see
system.mem_ctrls.rdQLenPdf::19                      0                       # What read queue length does an incoming req see
system.mem_ctrls.rdQLenPdf::20                      0                       # What read queue length does an incoming req see
system.mem_ctrls.rdQLenPdf::21                      0                       # What read queue length does an incoming req see
system.mem_ctrls.rdQLenPdf::22                      0                       # What read queue length does an incoming req see
system.mem_ctrls.rdQLenPdf::23                      0                       # What read queue length does an incoming req see
system.mem_ctrls.rdQLenPdf::24                      0                       # What read queue length does an incoming req see
system.mem_ctrls.rdQLenPdf::25                      0                       # What read queue length does an incoming req see
system.mem_ctrls.rdQLenPdf::26                      0                       # What read queue length does an incoming req see
system.mem_ctrls.rdQLenPdf::27                      0                       # What read queue length does an incoming req see
system.mem_ctrls.rdQLenPdf::28                      0                       # What read queue length does an incoming req see
system.mem_ctrls.rdQLenPdf::29                      0                       # What read queue length does an incoming req see
system.mem_ctrls.rdQLenPdf::30                      0                       # What read queue length does an incoming req see
system.mem_ctrls.rdQLenPdf::31                      0                       # What read queue length does an incoming req see
system.mem_ctrls.wrQLenPdf::0                       0                       # What write queue length does an incoming req see
system.mem_ctrls.wrQLenPdf::1                       0                       # What write queue length does an incoming req see
system.mem_ctrls.wrQLenPdf::2                       0                       # What write queue length does an incoming req see
system.mem_ctrls.wrQLenPdf::3                       0                       # What write queue length does an incoming req see
system.mem_ctrls.wrQLenPdf::4                       0                       # What write queue length does an incoming req see
system.mem_ctrls.wrQLenPdf::5                       0                       # What write queue length does an incoming req see
system.mem_ctrls.wrQLenPdf::6                       0                       # What write queue length does an incoming req see
system.mem_ctrls.wrQLenPdf::7                       0                       # What write queue length does an incoming req see
system.mem_ctrls.wrQLenPdf::8                       0                       # What write queue length does an incoming req see
system.mem_ctrls.wrQLenPdf::9                       0                       # What write queue length does an incoming req see
system.mem_ctrls.wrQLenPdf::10                      0                       # What write queue length does an incoming req see
system.mem_ctrls.wrQLenPdf::11                      0                       # What write queue length does an incoming req see
system.mem_ctrls.wrQLenPdf::12                      0                       # What write queue length does an incoming req see
system.mem_ctrls.wrQLenPdf::13                      0                       # What write queue length does an incoming req see
system.mem_ctrls.wrQLenPdf::14                      0                       # What write queue length does an incoming req see
system.mem_ctrls.wrQLenPdf::15                   2674                       # What write queue length does an incoming req see
system.mem_ctrls.wrQLenPdf::16                   3140                       # What write queue length does an incoming req see
system.mem_ctrls.wrQLenPdf::17                 126073                       # What write queue length does an incoming req see
system.mem_ctrls.wrQLenPdf::18                 127263                       # What write queue length does an incoming req see
system.mem_ctrls.wrQLenPdf::19                 127200                       # What write queue length does an incoming req see
system.mem_ctrls.wrQLenPdf::20                 127235                       # What write queue length does an incoming req see
system.mem_ctrls.wrQLenPdf::21                 127189                       # What write queue length does an incoming req see
system.mem_ctrls.wrQLenPdf::22                 127134                       # What write queue length does an incoming req see
system.mem_ctrls.wrQLenPdf::23                 127174                       # What write queue length does an incoming req see
system.mem_ctrls.wrQLenPdf::24                 127161                       # What write queue length does an incoming req see
system.mem_ctrls.wrQLenPdf::25                 127108                       # What write queue length does an incoming req see
system.mem_ctrls.wrQLenPdf::26                 127147                       # What write queue length does an incoming req see
system.mem_ctrls.wrQLenPdf::27                 127123                       # What write queue length does an incoming req see
system.mem_ctrls.wrQLenPdf::28                 127116                       # What write queue length does an incoming req see
system.mem_ctrls.wrQLenPdf::29                 127076                       # What write queue length does an incoming req see
system.mem_ctrls.wrQLenPdf::30                 127062                       # What write queue length does an incoming req see
system.mem_ctrls.wrQLenPdf::31                 127054                       # What write queue length does an incoming req see
system.mem_ctrls.wrQLenPdf::32                 127026                       # What write queue length does an incoming req see
system.mem_ctrls.wrQLenPdf::33                     22                       # What write queue length does an incoming req see
system.mem_ctrls.wrQLenPdf::34                      8                       # What write queue length does an incoming req see
system.mem_ctrls.wrQLenPdf::35                      4                       # What write queue length does an incoming req see
system.mem_ctrls.wrQLenPdf::36                      5                       # What write queue length does an incoming req see
system.mem_ctrls.wrQLenPdf::37                      4                       # What write queue length does an incoming req see
system.mem_ctrls.wrQLenPdf::38                      3                       # What write queue length does an incoming req see
system.mem_ctrls.wrQLenPdf::39                      3                       # What write queue length does an incoming req see
system.mem_ctrls.wrQLenPdf::40                      1                       # What write queue length does an incoming req see
system.mem_ctrls.wrQLenPdf::41                      1                       # What write queue length does an incoming req see
system.mem_ctrls.wrQLenPdf::42                      2                       # What write queue length does an incoming req see
system.mem_ctrls.wrQLenPdf::43                      1                       # What write queue length does an incoming req see
system.mem_ctrls.wrQLenPdf::44                      1                       # What write queue length does an incoming req see
system.mem_ctrls.wrQLenPdf::45                      1                       # What write queue length does an incoming req see
system.mem_ctrls.wrQLenPdf::46                      0                       # What write queue length does an incoming req see
system.mem_ctrls.wrQLenPdf::47                      0                       # What write queue length does an incoming req see
system.mem_ctrls.wrQLenPdf::48                      0                       # What write queue length does an incoming req see
system.mem_ctrls.wrQLenPdf::49                      0                       # What write queue length does an incoming req see
system.mem_ctrls.wrQLenPdf::50                      0                       # What write queue length does an incoming req see
system.mem_ctrls.wrQLenPdf::51                      0                       # What write queue length does an incoming req see
system.mem_ctrls.wrQLenPdf::52                      0                       # What write queue length does an incoming req see
system.mem_ctrls.wrQLenPdf::53                      0                       # What write queue length does an incoming req see
system.mem_ctrls.wrQLenPdf::54                      0                       # What write queue length does an incoming req see
system.mem_ctrls.wrQLenPdf::55                      0                       # What write queue length does an incoming req see
system.mem_ctrls.wrQLenPdf::56                      0                       # What write queue length does an incoming req see
system.mem_ctrls.wrQLenPdf::57                      0                       # What write queue length does an incoming req see
system.mem_ctrls.wrQLenPdf::58                      0                       # What write queue length does an incoming req see
system.mem_ctrls.wrQLenPdf::59                      0                       # What write queue length does an incoming req see
system.mem_ctrls.wrQLenPdf::60                      0                       # What write queue length does an incoming req see
system.mem_ctrls.wrQLenPdf::61                      0                       # What write queue length does an incoming req see
system.mem_ctrls.wrQLenPdf::62                      0                       # What write queue length does an incoming req see
system.mem_ctrls.wrQLenPdf::63                      0                       # What write queue length does an incoming req see
system.mem_ctrls.bytesPerActivate::samples      5192289                       # Bytes accessed per row activation
system.mem_ctrls.bytesPerActivate::mean     72.071526                       # Bytes accessed per row activation
system.mem_ctrls.bytesPerActivate::gmean    68.933698                       # Bytes accessed per row activation
system.mem_ctrls.bytesPerActivate::stdev    37.712597                       # Bytes accessed per row activation
system.mem_ctrls.bytesPerActivate::0-127      4696669     90.45%     90.45% # Bytes accessed per row activation
system.mem_ctrls.bytesPerActivate::128-255       469130      9.04%     99.49% # Bytes accessed per row activation
system.mem_ctrls.bytesPerActivate::256-383        15730      0.30%     99.79% # Bytes accessed per row activation
system.mem_ctrls.bytesPerActivate::384-511         4990      0.10%     99.89% # Bytes accessed per row activation
system.mem_ctrls.bytesPerActivate::512-639         1000      0.02%     99.91% # Bytes accessed per row activation
system.mem_ctrls.bytesPerActivate::640-767          577      0.01%     99.92% # Bytes accessed per row activation
system.mem_ctrls.bytesPerActivate::768-895          439      0.01%     99.93% # Bytes accessed per row activation
system.mem_ctrls.bytesPerActivate::896-1023          364      0.01%     99.93% # Bytes accessed per row activation
system.mem_ctrls.bytesPerActivate::1024-1151         3390      0.07%    100.00% # Bytes accessed per row activation
system.mem_ctrls.bytesPerActivate::total      5192289                       # Bytes accessed per row activation
system.mem_ctrls.rdPerTurnAround::samples       127017                       # Reads before turning the bus around for writes
system.mem_ctrls.rdPerTurnAround::mean      29.981404                       # Reads before turning the bus around for writes
system.mem_ctrls.rdPerTurnAround::stdev      8.786732                       # Reads before turning the bus around for writes
system.mem_ctrls.rdPerTurnAround::0-15            137      0.11%      0.11% # Reads before turning the bus around for writes
system.mem_ctrls.rdPerTurnAround::16-31         85673     67.45%     67.56% # Reads before turning the bus around for writes
system.mem_ctrls.rdPerTurnAround::32-47         40354     31.77%     99.33% # Reads before turning the bus around for writes
system.mem_ctrls.rdPerTurnAround::48-63           265      0.21%     99.54% # Reads before turning the bus around for writes
system.mem_ctrls.rdPerTurnAround::64-79            39      0.03%     99.57% # Reads before turning the bus around for writes
system.mem_ctrls.rdPerTurnAround::80-95            75      0.06%     99.63% # Reads before turning the bus around for writes
system.mem_ctrls.rdPerTurnAround::96-111          109      0.09%     99.71% # Reads before turning the bus around for writes
system.mem_ctrls.rdPerTurnAround::112-127          111      0.09%     99.80% # Reads before turning the bus around for writes
system.mem_ctrls.rdPerTurnAround::128-143           99      0.08%     99.88% # Reads before turning the bus around for writes
system.mem_ctrls.rdPerTurnAround::144-159           60      0.05%     99.93% # Reads before turning the bus around for writes
system.mem_ctrls.rdPerTurnAround::160-175           53      0.04%     99.97% # Reads before turning the bus around for writes
system.mem_ctrls.rdPerTurnAround::176-191           25      0.02%     99.99% # Reads before turning the bus around for writes
system.mem_ctrls.rdPerTurnAround::192-207            3      0.00%     99.99% # Reads before turning the bus around for writes
system.mem_ctrls.rdPerTurnAround::208-223            7      0.01%     99.99% # Reads before turning the bus around for writes
system.mem_ctrls.rdPerTurnAround::224-239            1      0.00%    100.00% # Reads before turning the bus around for writes
system.mem_ctrls.rdPerTurnAround::288-303            1      0.00%    100.00% # Reads before turning the bus around for writes
system.mem_ctrls.rdPerTurnAround::320-335            1      0.00%    100.00% # Reads before turning the bus around for writes
system.mem_ctrls.rdPerTurnAround::336-351            1      0.00%    100.00% # Reads before turning the bus around for writes
system.mem_ctrls.rdPerTurnAround::368-383            1      0.00%    100.00% # Reads before turning the bus around for writes
system.mem_ctrls.rdPerTurnAround::400-415            1      0.00%    100.00% # Reads before turning the bus around for writes
system.mem_ctrls.rdPerTurnAround::448-463            1      0.00%    100.00% # Reads before turning the bus around for writes
system.mem_ctrls.rdPerTurnAround::total        127017                       # Reads before turning the bus around for writes
system.mem_ctrls.wrPerTurnAround::samples       127017                       # Writes before turning the bus around for reads
system.mem_ctrls.wrPerTurnAround::mean      16.053017                       # Writes before turning the bus around for reads
system.mem_ctrls.wrPerTurnAround::gmean     16.049029                       # Writes before turning the bus around for reads
system.mem_ctrls.wrPerTurnAround::stdev      0.394455                       # Writes before turning the bus around for reads
system.mem_ctrls.wrPerTurnAround::16           123825     97.49%     97.49% # Writes before turning the bus around for reads
system.mem_ctrls.wrPerTurnAround::17              352      0.28%     97.76% # Writes before turning the bus around for reads
system.mem_ctrls.wrPerTurnAround::18             2699      2.12%     99.89% # Writes before turning the bus around for reads
system.mem_ctrls.wrPerTurnAround::19               30      0.02%     99.91% # Writes before turning the bus around for reads
system.mem_ctrls.wrPerTurnAround::20                1      0.00%     99.91% # Writes before turning the bus around for reads
system.mem_ctrls.wrPerTurnAround::21               30      0.02%     99.94% # Writes before turning the bus around for reads
system.mem_ctrls.wrPerTurnAround::22               11      0.01%     99.95% # Writes before turning the bus around for reads
system.mem_ctrls.wrPerTurnAround::23                5      0.00%     99.95% # Writes before turning the bus around for reads
system.mem_ctrls.wrPerTurnAround::24               35      0.03%     99.98% # Writes before turning the bus around for reads
system.mem_ctrls.wrPerTurnAround::25                7      0.01%     99.98% # Writes before turning the bus around for reads
system.mem_ctrls.wrPerTurnAround::28               17      0.01%    100.00% # Writes before turning the bus around for reads
system.mem_ctrls.wrPerTurnAround::29                1      0.00%    100.00% # Writes before turning the bus around for reads
system.mem_ctrls.wrPerTurnAround::30                1      0.00%    100.00% # Writes before turning the bus around for reads
system.mem_ctrls.wrPerTurnAround::31                2      0.00%    100.00% # Writes before turning the bus around for reads
system.mem_ctrls.wrPerTurnAround::51                1      0.00%    100.00% # Writes before turning the bus around for reads
system.mem_ctrls.wrPerTurnAround::total        127017                       # Writes before turning the bus around for reads
system.mem_ctrls.totQLat                  97775352146                       # Total ticks spent queuing
system.mem_ctrls.totMemAccLat            169177658396                       # Total ticks spent from burst creation until serviced by the DRAM
system.mem_ctrls.totBusLat                19040615000                       # Total ticks spent in databus transfers
system.mem_ctrls.avgQLat                     25675.47                       # Average queueing delay per DRAM burst
system.mem_ctrls.avgBusLat                    5000.00                       # Average bus latency per DRAM burst
system.mem_ctrls.avgMemAccLat                44425.47                       # Average memory access latency per DRAM burst
system.mem_ctrls.avgRdBW                       298.73                       # Average DRAM read bandwidth in MiByte/s
system.mem_ctrls.avgWrBW                       159.95                       # Average achieved write bandwidth in MiByte/s
system.mem_ctrls.avgRdBWSys                    298.84                       # Average system read bandwidth in MiByte/s
system.mem_ctrls.avgWrBWSys                    159.95                       # Average system write bandwidth in MiByte/s
system.mem_ctrls.peakBW                      12800.00                       # Theoretical peak bandwidth in MiByte/s
system.mem_ctrls.busUtil                         3.58                       # Data bus utilization in percentage
system.mem_ctrls.busUtilRead                     2.33                       # Data bus utilization in percentage for reads
system.mem_ctrls.busUtilWrite                    1.25                       # Data bus utilization in percentage for writes
system.mem_ctrls.avgRdQLen                       1.00                       # Average read queue length when enqueuing
system.mem_ctrls.avgWrQLen                      25.63                       # Average write queue length when enqueuing
system.mem_ctrls.readRowHits                   563983                       # Number of row buffer hits during reads
system.mem_ctrls.writeRowHits                   90857                       # Number of row buffer hits during writes
system.mem_ctrls.readRowHitRate                 14.81                       # Row buffer hit rate for reads
system.mem_ctrls.writeRowHitRate                 4.46                       # Row buffer hit rate for writes
system.mem_ctrls.avgGap                     139497.71                       # Average gap between requests
system.mem_ctrls.pageHitRate                    11.20                       # Row buffer hit rate, read and write combined
system.mem_ctrls_0.actEnergy              19567638720                       # Energy for activate commands per rank (pJ)
system.mem_ctrls_0.preEnergy              10676787000                       # Energy for precharge commands per rank (pJ)
system.mem_ctrls_0.readEnergy             14889193800                       # Energy for read commands per rank (pJ)
system.mem_ctrls_0.writeEnergy             6628288320                       # Energy for write commands per rank (pJ)
system.mem_ctrls_0.refreshEnergy          53782254240                       # Energy for refresh commands per rank (pJ)
system.mem_ctrls_0.actBackEnergy         523602528390                       # Energy for active background per rank (pJ)
system.mem_ctrls_0.preBackEnergy          34755942000                       # Energy for precharge background per rank (pJ)
system.mem_ctrls_0.totalEnergy           663902632470                       # Total energy per rank (pJ)
system.mem_ctrls_0.averagePower            806.267412                       # Core power per rank (mW)
system.mem_ctrls_0.memoryStateTime::IDLE  51489765000                       # Time in different power states
system.mem_ctrls_0.memoryStateTime::REF   27243320000                       # Time in different power states
system.mem_ctrls_0.memoryStateTime::PRE_PDN            0                       # Time in different power states
system.mem_ctrls_0.memoryStateTime::ACT  737126515500                       # Time in different power states
system.mem_ctrls_0.memoryStateTime::ACT_PDN            0                       # Time in different power states
system.mem_ctrls_1.actEnergy              19729105200                       # Energy for activate commands per rank (pJ)
system.mem_ctrls_1.preEnergy              10764888750                       # Energy for precharge commands per rank (pJ)
system.mem_ctrls_1.readEnergy             15031738800                       # Energy for read commands per rank (pJ)
system.mem_ctrls_1.writeEnergy             6589356480                       # Energy for write commands per rank (pJ)
system.mem_ctrls_1.refreshEnergy          53782254240                       # Energy for refresh commands per rank (pJ)
system.mem_ctrls_1.actBackEnergy         527282085870                       # Energy for active background per rank (pJ)
system.mem_ctrls_1.preBackEnergy          31528260000                       # Energy for precharge background per rank (pJ)
system.mem_ctrls_1.totalEnergy           664707689340                       # Total energy per rank (pJ)
system.mem_ctrls_1.averagePower            807.245102                       # Core power per rank (mW)
system.mem_ctrls_1.memoryStateTime::IDLE  46104038501                       # Time in different power states
system.mem_ctrls_1.memoryStateTime::REF   27243320000                       # Time in different power states
system.mem_ctrls_1.memoryStateTime::PRE_PDN            0                       # Time in different power states
system.mem_ctrls_1.memoryStateTime::ACT  742511488999                       # Time in different power states
system.mem_ctrls_1.memoryStateTime::ACT_PDN            0                       # Time in different power states
system.cpu_voltage_domain.voltage                   1                       # Voltage in Volts
system.cpu_clk_domain.clock                       500                       # Clock period in ticks
system.cpu0.apic_clk_domain.clock                8000                       # Clock period in ticks
system.cpu0.numCycles                      1633631270                       # number of cpu cycles simulated
system.cpu0.numWorkItemsStarted                     0                       # number of work items this cpu started
system.cpu0.numWorkItemsCompleted                   0                       # number of work items this cpu completed
system.cpu0.kern.inst.arm                           0                       # number of arm instructions executed
system.cpu0.kern.inst.quiesce                       0                       # number of quiesce instructions executed
system.cpu0.committedInsts                  124230545                       # Number of instructions committed
system.cpu0.committedOps                    203581712                       # Number of ops (including micro ops) committed
system.cpu0.num_int_alu_accesses            158401752                       # Number of integer alu accesses
system.cpu0.num_fp_alu_accesses              51469713                       # Number of float alu accesses
system.cpu0.num_func_calls                    2430467                       # number of times a function call or return occured
system.cpu0.num_conditional_control_insts      7429719                       # number of instructions that are conditional controls
system.cpu0.num_int_insts                   158401752                       # number of integer instructions
system.cpu0.num_fp_insts                     51469713                       # number of float instructions
system.cpu0.num_int_register_reads          337452259                       # number of times the integer registers were read
system.cpu0.num_int_register_writes         126375860                       # number of times the integer registers were written
system.cpu0.num_fp_register_reads            96849695                       # number of times the floating registers were read
system.cpu0.num_fp_register_writes           49751788                       # number of times the floating registers were written
system.cpu0.num_cc_register_reads            81586350                       # number of times the CC registers were read
system.cpu0.num_cc_register_writes           70190239                       # number of times the CC registers were written
system.cpu0.num_mem_refs                     42510921                       # number of memory refs
system.cpu0.num_load_insts                   33924842                       # Number of load instructions
system.cpu0.num_store_insts                   8586079                       # Number of store instructions
system.cpu0.num_idle_cycles              892397425.388110                       # Number of idle cycles
system.cpu0.num_busy_cycles              741233844.611890                       # Number of busy cycles
system.cpu0.not_idle_fraction                0.453734                       # Percentage of non-idle cycles
system.cpu0.idle_fraction                    0.546266                       # Percentage of idle cycles
system.cpu0.Branches                         11823085                       # Number of branches fetched
system.cpu0.op_class::No_OpClass              1816521      0.89%      0.89% # Class of executed instruction
system.cpu0.op_class::IntAlu                117200517     57.57%     58.46% # Class of executed instruction
system.cpu0.op_class::IntMult                    4093      0.00%     58.46% # Class of executed instruction
system.cpu0.op_class::IntDiv                     6498      0.00%     58.47% # Class of executed instruction
system.cpu0.op_class::FloatAdd               42045751     20.65%     79.12% # Class of executed instruction
system.cpu0.op_class::FloatCmp                      0      0.00%     79.12% # Class of executed instruction
system.cpu0.op_class::FloatCvt                      0      0.00%     79.12% # Class of executed instruction
system.cpu0.op_class::FloatMult                     0      0.00%     79.12% # Class of executed instruction
system.cpu0.op_class::FloatDiv                      0      0.00%     79.12% # Class of executed instruction
system.cpu0.op_class::FloatSqrt                     0      0.00%     79.12% # Class of executed instruction
system.cpu0.op_class::SimdAdd                       0      0.00%     79.12% # Class of executed instruction
system.cpu0.op_class::SimdAddAcc                    0      0.00%     79.12% # Class of executed instruction
system.cpu0.op_class::SimdAlu                       0      0.00%     79.12% # Class of executed instruction
system.cpu0.op_class::SimdCmp                       0      0.00%     79.12% # Class of executed instruction
system.cpu0.op_class::SimdCvt                       0      0.00%     79.12% # Class of executed instruction
system.cpu0.op_class::SimdMisc                      0      0.00%     79.12% # Class of executed instruction
system.cpu0.op_class::SimdMult                      0      0.00%     79.12% # Class of executed instruction
system.cpu0.op_class::SimdMultAcc                   0      0.00%     79.12% # Class of executed instruction
system.cpu0.op_class::SimdShift                     0      0.00%     79.12% # Class of executed instruction
system.cpu0.op_class::SimdShiftAcc                  0      0.00%     79.12% # Class of executed instruction
system.cpu0.op_class::SimdSqrt                      0      0.00%     79.12% # Class of executed instruction
system.cpu0.op_class::SimdFloatAdd                  0      0.00%     79.12% # Class of executed instruction
system.cpu0.op_class::SimdFloatAlu                  0      0.00%     79.12% # Class of executed instruction
system.cpu0.op_class::SimdFloatCmp                  0      0.00%     79.12% # Class of executed instruction
system.cpu0.op_class::SimdFloatCvt                  0      0.00%     79.12% # Class of executed instruction
system.cpu0.op_class::SimdFloatDiv                  0      0.00%     79.12% # Class of executed instruction
system.cpu0.op_class::SimdFloatMisc                 0      0.00%     79.12% # Class of executed instruction
system.cpu0.op_class::SimdFloatMult                 0      0.00%     79.12% # Class of executed instruction
system.cpu0.op_class::SimdFloatMultAcc              0      0.00%     79.12% # Class of executed instruction
system.cpu0.op_class::SimdFloatSqrt                 0      0.00%     79.12% # Class of executed instruction
system.cpu0.op_class::MemRead                33924842     16.66%     95.78% # Class of executed instruction
system.cpu0.op_class::MemWrite                8586079      4.22%    100.00% # Class of executed instruction
system.cpu0.op_class::IprAccess                     0      0.00%    100.00% # Class of executed instruction
system.cpu0.op_class::InstPrefetch                  0      0.00%    100.00% # Class of executed instruction
system.cpu0.op_class::total                 203584301                       # Class of executed instruction
system.cpu1.apic_clk_domain.clock                8000                       # Clock period in ticks
system.cpu1.numCycles                      1631946947                       # number of cpu cycles simulated
system.cpu1.numWorkItemsStarted                     0                       # number of work items this cpu started
system.cpu1.numWorkItemsCompleted                   0                       # number of work items this cpu completed
system.cpu1.kern.inst.arm                           0                       # number of arm instructions executed
system.cpu1.kern.inst.quiesce                       0                       # number of quiesce instructions executed
system.cpu1.committedInsts                    2406358                       # Number of instructions committed
system.cpu1.committedOps                      4880437                       # Number of ops (including micro ops) committed
system.cpu1.num_int_alu_accesses              4799798                       # Number of integer alu accesses
system.cpu1.num_fp_alu_accesses                    68                       # Number of float alu accesses
system.cpu1.num_func_calls                     114114                       # number of times a function call or return occured
system.cpu1.num_conditional_control_insts       428416                       # number of instructions that are conditional controls
system.cpu1.num_int_insts                     4799798                       # number of integer instructions
system.cpu1.num_fp_insts                           68                       # number of float instructions
system.cpu1.num_int_register_reads            9324669                       # number of times the integer registers were read
system.cpu1.num_int_register_writes           3939025                       # number of times the integer registers were written
system.cpu1.num_fp_register_reads                  70                       # number of times the floating registers were read
system.cpu1.num_fp_register_writes                 62                       # number of times the floating registers were written
system.cpu1.num_cc_register_reads             3139689                       # number of times the CC registers were read
system.cpu1.num_cc_register_writes            1685829                       # number of times the CC registers were written
system.cpu1.num_mem_refs                       957379                       # number of memory refs
system.cpu1.num_load_insts                     613493                       # Number of load instructions
system.cpu1.num_store_insts                    343886                       # Number of store instructions
system.cpu1.num_idle_cycles              1618355442.529309                       # Number of idle cycles
system.cpu1.num_busy_cycles              13591504.470691                       # Number of busy cycles
system.cpu1.not_idle_fraction                0.008328                       # Percentage of non-idle cycles
system.cpu1.idle_fraction                    0.991672                       # Percentage of idle cycles
system.cpu1.Branches                           579922                       # Number of branches fetched
system.cpu1.op_class::No_OpClass                48205      0.99%      0.99% # Class of executed instruction
system.cpu1.op_class::IntAlu                  3857922     79.04%     80.03% # Class of executed instruction
system.cpu1.op_class::IntMult                    7764      0.16%     80.19% # Class of executed instruction
system.cpu1.op_class::IntDiv                     9704      0.20%     80.39% # Class of executed instruction
system.cpu1.op_class::FloatAdd                     24      0.00%     80.39% # Class of executed instruction
system.cpu1.op_class::FloatCmp                      0      0.00%     80.39% # Class of executed instruction
system.cpu1.op_class::FloatCvt                      0      0.00%     80.39% # Class of executed instruction
system.cpu1.op_class::FloatMult                     0      0.00%     80.39% # Class of executed instruction
system.cpu1.op_class::FloatDiv                      0      0.00%     80.39% # Class of executed instruction
system.cpu1.op_class::FloatSqrt                     0      0.00%     80.39% # Class of executed instruction
system.cpu1.op_class::SimdAdd                       0      0.00%     80.39% # Class of executed instruction
system.cpu1.op_class::SimdAddAcc                    0      0.00%     80.39% # Class of executed instruction
system.cpu1.op_class::SimdAlu                       0      0.00%     80.39% # Class of executed instruction
system.cpu1.op_class::SimdCmp                       0      0.00%     80.39% # Class of executed instruction
system.cpu1.op_class::SimdCvt                       0      0.00%     80.39% # Class of executed instruction
system.cpu1.op_class::SimdMisc                      0      0.00%     80.39% # Class of executed instruction
system.cpu1.op_class::SimdMult                      0      0.00%     80.39% # Class of executed instruction
system.cpu1.op_class::SimdMultAcc                   0      0.00%     80.39% # Class of executed instruction
system.cpu1.op_class::SimdShift                     0      0.00%     80.39% # Class of executed instruction
system.cpu1.op_class::SimdShiftAcc                  0      0.00%     80.39% # Class of executed instruction
system.cpu1.op_class::SimdSqrt                      0      0.00%     80.39% # Class of executed instruction
system.cpu1.op_class::SimdFloatAdd                  0      0.00%     80.39% # Class of executed instruction
system.cpu1.op_class::SimdFloatAlu                  0      0.00%     80.39% # Class of executed instruction
system.cpu1.op_class::SimdFloatCmp                  0      0.00%     80.39% # Class of executed instruction
system.cpu1.op_class::SimdFloatCvt                  0      0.00%     80.39% # Class of executed instruction
system.cpu1.op_class::SimdFloatDiv                  0      0.00%     80.39% # Class of executed instruction
system.cpu1.op_class::SimdFloatMisc                 0      0.00%     80.39% # Class of executed instruction
system.cpu1.op_class::SimdFloatMult                 0      0.00%     80.39% # Class of executed instruction
system.cpu1.op_class::SimdFloatMultAcc              0      0.00%     80.39% # Class of executed instruction
system.cpu1.op_class::SimdFloatSqrt                 0      0.00%     80.39% # Class of executed instruction
system.cpu1.op_class::MemRead                  613493     12.57%     92.95% # Class of executed instruction
system.cpu1.op_class::MemWrite                 343886      7.05%    100.00% # Class of executed instruction
system.cpu1.op_class::IprAccess                     0      0.00%    100.00% # Class of executed instruction
system.cpu1.op_class::InstPrefetch                  0      0.00%    100.00% # Class of executed instruction
system.cpu1.op_class::total                   4880998                       # Class of executed instruction
system.cpu2.apic_clk_domain.clock                8000                       # Clock period in ticks
system.cpu2.numCycles                      1629722973                       # number of cpu cycles simulated
system.cpu2.numWorkItemsStarted                     0                       # number of work items this cpu started
system.cpu2.numWorkItemsCompleted                   0                       # number of work items this cpu completed
system.cpu2.kern.inst.arm                           0                       # number of arm instructions executed
system.cpu2.kern.inst.quiesce                       0                       # number of quiesce instructions executed
system.cpu2.committedInsts                  149121194                       # Number of instructions committed
system.cpu2.committedOps                    247000728                       # Number of ops (including micro ops) committed
system.cpu2.num_int_alu_accesses            195988458                       # Number of integer alu accesses
system.cpu2.num_fp_alu_accesses              58126292                       # Number of float alu accesses
system.cpu2.num_func_calls                    3127900                       # number of times a function call or return occured
system.cpu2.num_conditional_control_insts      9687256                       # number of instructions that are conditional controls
system.cpu2.num_int_insts                   195988458                       # number of integer instructions
system.cpu2.num_fp_insts                     58126292                       # number of float instructions
system.cpu2.num_int_register_reads          414976258                       # number of times the integer registers were read
system.cpu2.num_int_register_writes         156063137                       # number of times the integer registers were written
system.cpu2.num_fp_register_reads           107770796                       # number of times the floating registers were read
system.cpu2.num_fp_register_writes           55890855                       # number of times the floating registers were written
system.cpu2.num_cc_register_reads           100988145                       # number of times the CC registers were read
system.cpu2.num_cc_register_writes           85585554                       # number of times the CC registers were written
system.cpu2.num_mem_refs                     52033778                       # number of memory refs
system.cpu2.num_load_insts                   40990583                       # Number of load instructions
system.cpu2.num_store_insts                  11043195                       # Number of store instructions
system.cpu2.num_idle_cycles              736242034.958875                       # Number of idle cycles
system.cpu2.num_busy_cycles              893480938.041125                       # Number of busy cycles
system.cpu2.not_idle_fraction                0.548241                       # Percentage of non-idle cycles
system.cpu2.idle_fraction                    0.451759                       # Percentage of idle cycles
system.cpu2.Branches                         15590926                       # Number of branches fetched
system.cpu2.op_class::No_OpClass              2134357      0.86%      0.86% # Class of executed instruction
system.cpu2.op_class::IntAlu                143853985     58.24%     59.10% # Class of executed instruction
system.cpu2.op_class::IntMult                    3823      0.00%     59.11% # Class of executed instruction
system.cpu2.op_class::IntDiv                     3859      0.00%     59.11% # Class of executed instruction
system.cpu2.op_class::FloatAdd               48971018     19.83%     78.93% # Class of executed instruction
system.cpu2.op_class::FloatCmp                      0      0.00%     78.93% # Class of executed instruction
system.cpu2.op_class::FloatCvt                      0      0.00%     78.93% # Class of executed instruction
system.cpu2.op_class::FloatMult                     0      0.00%     78.93% # Class of executed instruction
system.cpu2.op_class::FloatDiv                      0      0.00%     78.93% # Class of executed instruction
system.cpu2.op_class::FloatSqrt                     0      0.00%     78.93% # Class of executed instruction
system.cpu2.op_class::SimdAdd                       0      0.00%     78.93% # Class of executed instruction
system.cpu2.op_class::SimdAddAcc                    0      0.00%     78.93% # Class of executed instruction
system.cpu2.op_class::SimdAlu                       0      0.00%     78.93% # Class of executed instruction
system.cpu2.op_class::SimdCmp                       0      0.00%     78.93% # Class of executed instruction
system.cpu2.op_class::SimdCvt                       0      0.00%     78.93% # Class of executed instruction
system.cpu2.op_class::SimdMisc                      0      0.00%     78.93% # Class of executed instruction
system.cpu2.op_class::SimdMult                      0      0.00%     78.93% # Class of executed instruction
system.cpu2.op_class::SimdMultAcc                   0      0.00%     78.93% # Class of executed instruction
system.cpu2.op_class::SimdShift                     0      0.00%     78.93% # Class of executed instruction
system.cpu2.op_class::SimdShiftAcc                  0      0.00%     78.93% # Class of executed instruction
system.cpu2.op_class::SimdSqrt                      0      0.00%     78.93% # Class of executed instruction
system.cpu2.op_class::SimdFloatAdd                  0      0.00%     78.93% # Class of executed instruction
system.cpu2.op_class::SimdFloatAlu                  0      0.00%     78.93% # Class of executed instruction
system.cpu2.op_class::SimdFloatCmp                  0      0.00%     78.93% # Class of executed instruction
system.cpu2.op_class::SimdFloatCvt                  0      0.00%     78.93% # Class of executed instruction
system.cpu2.op_class::SimdFloatDiv                  0      0.00%     78.93% # Class of executed instruction
system.cpu2.op_class::SimdFloatMisc                 0      0.00%     78.93% # Class of executed instruction
system.cpu2.op_class::SimdFloatMult                 0      0.00%     78.93% # Class of executed instruction
system.cpu2.op_class::SimdFloatMultAcc              0      0.00%     78.93% # Class of executed instruction
system.cpu2.op_class::SimdFloatSqrt                 0      0.00%     78.93% # Class of executed instruction
system.cpu2.op_class::MemRead                40990583     16.60%     95.53% # Class of executed instruction
system.cpu2.op_class::MemWrite               11043195      4.47%    100.00% # Class of executed instruction
system.cpu2.op_class::IprAccess                     0      0.00%    100.00% # Class of executed instruction
system.cpu2.op_class::InstPrefetch                  0      0.00%    100.00% # Class of executed instruction
system.cpu2.op_class::total                 247000820                       # Class of executed instruction
system.cpu3.apic_clk_domain.clock                8000                       # Clock period in ticks
system.cpu3.numCycles                      1636390908                       # number of cpu cycles simulated
system.cpu3.numWorkItemsStarted                     0                       # number of work items this cpu started
system.cpu3.numWorkItemsCompleted                   0                       # number of work items this cpu completed
system.cpu3.kern.inst.arm                           0                       # number of arm instructions executed
system.cpu3.kern.inst.quiesce                       0                       # number of quiesce instructions executed
system.cpu3.committedInsts                     948097                       # Number of instructions committed
system.cpu3.committedOps                      1965725                       # Number of ops (including micro ops) committed
system.cpu3.num_int_alu_accesses              1933586                       # Number of integer alu accesses
system.cpu3.num_fp_alu_accesses                   404                       # Number of float alu accesses
system.cpu3.num_func_calls                      49220                       # number of times a function call or return occured
system.cpu3.num_conditional_control_insts       176697                       # number of instructions that are conditional controls
system.cpu3.num_int_insts                     1933586                       # number of integer instructions
system.cpu3.num_fp_insts                          404                       # number of float instructions
system.cpu3.num_int_register_reads            3741084                       # number of times the integer registers were read
system.cpu3.num_int_register_writes           1575483                       # number of times the integer registers were written
system.cpu3.num_fp_register_reads                 712                       # number of times the floating registers were read
system.cpu3.num_fp_register_writes                364                       # number of times the floating registers were written
system.cpu3.num_cc_register_reads             1277761                       # number of times the CC registers were read
system.cpu3.num_cc_register_writes             646756                       # number of times the CC registers were written
system.cpu3.num_mem_refs                       406277                       # number of memory refs
system.cpu3.num_load_insts                     254219                       # Number of load instructions
system.cpu3.num_store_insts                    152058                       # Number of store instructions
system.cpu3.num_idle_cycles              1630210461.048486                       # Number of idle cycles
system.cpu3.num_busy_cycles              6180446.951514                       # Number of busy cycles
system.cpu3.not_idle_fraction                0.003777                       # Percentage of non-idle cycles
system.cpu3.idle_fraction                    0.996223                       # Percentage of idle cycles
system.cpu3.Branches                           240730                       # Number of branches fetched
system.cpu3.op_class::No_OpClass                22108      1.12%      1.12% # Class of executed instruction
system.cpu3.op_class::IntAlu                  1526508     77.65%     78.78% # Class of executed instruction
system.cpu3.op_class::IntMult                    3819      0.19%     78.97% # Class of executed instruction
system.cpu3.op_class::IntDiv                     6727      0.34%     79.32% # Class of executed instruction
system.cpu3.op_class::FloatAdd                    320      0.02%     79.33% # Class of executed instruction
system.cpu3.op_class::FloatCmp                      0      0.00%     79.33% # Class of executed instruction
system.cpu3.op_class::FloatCvt                      0      0.00%     79.33% # Class of executed instruction
system.cpu3.op_class::FloatMult                     0      0.00%     79.33% # Class of executed instruction
system.cpu3.op_class::FloatDiv                      0      0.00%     79.33% # Class of executed instruction
system.cpu3.op_class::FloatSqrt                     0      0.00%     79.33% # Class of executed instruction
system.cpu3.op_class::SimdAdd                       0      0.00%     79.33% # Class of executed instruction
system.cpu3.op_class::SimdAddAcc                    0      0.00%     79.33% # Class of executed instruction
system.cpu3.op_class::SimdAlu                       0      0.00%     79.33% # Class of executed instruction
system.cpu3.op_class::SimdCmp                       0      0.00%     79.33% # Class of executed instruction
system.cpu3.op_class::SimdCvt                       0      0.00%     79.33% # Class of executed instruction
system.cpu3.op_class::SimdMisc                      0      0.00%     79.33% # Class of executed instruction
system.cpu3.op_class::SimdMult                      0      0.00%     79.33% # Class of executed instruction
system.cpu3.op_class::SimdMultAcc                   0      0.00%     79.33% # Class of executed instruction
system.cpu3.op_class::SimdShift                     0      0.00%     79.33% # Class of executed instruction
system.cpu3.op_class::SimdShiftAcc                  0      0.00%     79.33% # Class of executed instruction
system.cpu3.op_class::SimdSqrt                      0      0.00%     79.33% # Class of executed instruction
system.cpu3.op_class::SimdFloatAdd                  0      0.00%     79.33% # Class of executed instruction
system.cpu3.op_class::SimdFloatAlu                  0      0.00%     79.33% # Class of executed instruction
system.cpu3.op_class::SimdFloatCmp                  0      0.00%     79.33% # Class of executed instruction
system.cpu3.op_class::SimdFloatCvt                  0      0.00%     79.33% # Class of executed instruction
system.cpu3.op_class::SimdFloatDiv                  0      0.00%     79.33% # Class of executed instruction
system.cpu3.op_class::SimdFloatMisc                 0      0.00%     79.33% # Class of executed instruction
system.cpu3.op_class::SimdFloatMult                 0      0.00%     79.33% # Class of executed instruction
system.cpu3.op_class::SimdFloatMultAcc              0      0.00%     79.33% # Class of executed instruction
system.cpu3.op_class::SimdFloatSqrt                 0      0.00%     79.33% # Class of executed instruction
system.cpu3.op_class::MemRead                  254219     12.93%     92.26% # Class of executed instruction
system.cpu3.op_class::MemWrite                 152058      7.74%    100.00% # Class of executed instruction
system.cpu3.op_class::IprAccess                     0      0.00%    100.00% # Class of executed instruction
system.cpu3.op_class::InstPrefetch                  0      0.00%    100.00% # Class of executed instruction
system.cpu3.op_class::total                   1965759                       # Class of executed instruction
system.iobus.trans_dist::ReadReq                  566                       # Transaction distribution
system.iobus.trans_dist::ReadResp                 566                       # Transaction distribution
system.iobus.trans_dist::WriteReq                1853                       # Transaction distribution
system.iobus.trans_dist::WriteResp               1853                       # Transaction distribution
system.iobus.trans_dist::MessageReq                78                       # Transaction distribution
system.iobus.trans_dist::MessageResp               78                       # Transaction distribution
system.iobus.pkt_count_system.pc.south_bridge.io_apic.int_master::system.ruby.l1_cntrl0.sequencer.pio-slave-port           32                       # Packet count per connected master and slave (bytes)
system.iobus.pkt_count_system.pc.south_bridge.io_apic.int_master::system.ruby.l1_cntrl1.sequencer.pio-slave-port           32                       # Packet count per connected master and slave (bytes)
system.iobus.pkt_count_system.pc.south_bridge.io_apic.int_master::system.ruby.l1_cntrl2.sequencer.pio-slave-port           32                       # Packet count per connected master and slave (bytes)
system.iobus.pkt_count_system.pc.south_bridge.io_apic.int_master::system.ruby.l1_cntrl3.sequencer.pio-slave-port           32                       # Packet count per connected master and slave (bytes)
system.iobus.pkt_count_system.pc.south_bridge.io_apic.int_master::total          128                       # Packet count per connected master and slave (bytes)
system.iobus.pkt_count_system.ruby.l1_cntrl0.sequencer.mem-master-port::system.pc.south_bridge.ide.pio          588                       # Packet count per connected master and slave (bytes)
system.iobus.pkt_count_system.ruby.l1_cntrl0.sequencer.mem-master-port::system.pc.south_bridge.io_apic.pio            8                       # Packet count per connected master and slave (bytes)
system.iobus.pkt_count_system.ruby.l1_cntrl0.sequencer.mem-master-port::system.pc.com_1.pio            2                       # Packet count per connected master and slave (bytes)
system.iobus.pkt_count_system.ruby.l1_cntrl0.sequencer.mem-master-port::system.ruby.l1_cntrl0.sequencer.pio-slave-port          480                       # Packet count per connected master and slave (bytes)
system.iobus.pkt_count_system.ruby.l1_cntrl0.sequencer.mem-master-port::system.ruby.l1_cntrl1.sequencer.pio-slave-port            4                       # Packet count per connected master and slave (bytes)
system.iobus.pkt_count_system.ruby.l1_cntrl0.sequencer.mem-master-port::system.ruby.l1_cntrl2.sequencer.pio-slave-port            2                       # Packet count per connected master and slave (bytes)
system.iobus.pkt_count_system.ruby.l1_cntrl0.sequencer.mem-master-port::system.ruby.l1_cntrl3.sequencer.pio-slave-port            4                       # Packet count per connected master and slave (bytes)
system.iobus.pkt_count_system.ruby.l1_cntrl0.sequencer.mem-master-port::total         1088                       # Packet count per connected master and slave (bytes)
system.iobus.pkt_count_system.ruby.l1_cntrl1.sequencer.mem-master-port::system.pc.south_bridge.ide.pio          962                       # Packet count per connected master and slave (bytes)
system.iobus.pkt_count_system.ruby.l1_cntrl1.sequencer.mem-master-port::system.pc.south_bridge.io_apic.pio            8                       # Packet count per connected master and slave (bytes)
system.iobus.pkt_count_system.ruby.l1_cntrl1.sequencer.mem-master-port::system.ruby.l1_cntrl0.sequencer.pio-slave-port            2                       # Packet count per connected master and slave (bytes)
system.iobus.pkt_count_system.ruby.l1_cntrl1.sequencer.mem-master-port::system.ruby.l1_cntrl1.sequencer.pio-slave-port          460                       # Packet count per connected master and slave (bytes)
system.iobus.pkt_count_system.ruby.l1_cntrl1.sequencer.mem-master-port::system.ruby.l1_cntrl2.sequencer.pio-slave-port            2                       # Packet count per connected master and slave (bytes)
system.iobus.pkt_count_system.ruby.l1_cntrl1.sequencer.mem-master-port::total         1434                       # Packet count per connected master and slave (bytes)
system.iobus.pkt_count_system.ruby.l1_cntrl2.sequencer.mem-master-port::system.pc.south_bridge.ide.pio          588                       # Packet count per connected master and slave (bytes)
system.iobus.pkt_count_system.ruby.l1_cntrl2.sequencer.mem-master-port::system.pc.south_bridge.io_apic.pio            8                       # Packet count per connected master and slave (bytes)
system.iobus.pkt_count_system.ruby.l1_cntrl2.sequencer.mem-master-port::system.ruby.l1_cntrl0.sequencer.pio-slave-port            6                       # Packet count per connected master and slave (bytes)
system.iobus.pkt_count_system.ruby.l1_cntrl2.sequencer.mem-master-port::system.ruby.l1_cntrl1.sequencer.pio-slave-port            2                       # Packet count per connected master and slave (bytes)
system.iobus.pkt_count_system.ruby.l1_cntrl2.sequencer.mem-master-port::system.ruby.l1_cntrl2.sequencer.pio-slave-port          474                       # Packet count per connected master and slave (bytes)
system.iobus.pkt_count_system.ruby.l1_cntrl2.sequencer.mem-master-port::system.ruby.l1_cntrl3.sequencer.pio-slave-port            2                       # Packet count per connected master and slave (bytes)
system.iobus.pkt_count_system.ruby.l1_cntrl2.sequencer.mem-master-port::total         1080                       # Packet count per connected master and slave (bytes)
system.iobus.pkt_count_system.ruby.l1_cntrl3.sequencer.mem-master-port::system.pc.south_bridge.ide.pio          622                       # Packet count per connected master and slave (bytes)
system.iobus.pkt_count_system.ruby.l1_cntrl3.sequencer.mem-master-port::system.pc.south_bridge.io_apic.pio            6                       # Packet count per connected master and slave (bytes)
system.iobus.pkt_count_system.ruby.l1_cntrl3.sequencer.mem-master-port::system.pc.com_1.pio          174                       # Packet count per connected master and slave (bytes)
system.iobus.pkt_count_system.ruby.l1_cntrl3.sequencer.mem-master-port::system.ruby.l1_cntrl0.sequencer.pio-slave-port            2                       # Packet count per connected master and slave (bytes)
system.iobus.pkt_count_system.ruby.l1_cntrl3.sequencer.mem-master-port::system.ruby.l1_cntrl1.sequencer.pio-slave-port            2                       # Packet count per connected master and slave (bytes)
system.iobus.pkt_count_system.ruby.l1_cntrl3.sequencer.mem-master-port::system.ruby.l1_cntrl3.sequencer.pio-slave-port          458                       # Packet count per connected master and slave (bytes)
system.iobus.pkt_count_system.ruby.l1_cntrl3.sequencer.mem-master-port::total         1264                       # Packet count per connected master and slave (bytes)
system.iobus.pkt_count::total                    4994                       # Packet count per connected master and slave (bytes)
system.iobus.pkt_size_system.pc.south_bridge.io_apic.int_master::system.ruby.l1_cntrl0.sequencer.pio-slave-port           64                       # Cumulative packet size per connected master and slave (bytes)
system.iobus.pkt_size_system.pc.south_bridge.io_apic.int_master::system.ruby.l1_cntrl1.sequencer.pio-slave-port           64                       # Cumulative packet size per connected master and slave (bytes)
system.iobus.pkt_size_system.pc.south_bridge.io_apic.int_master::system.ruby.l1_cntrl2.sequencer.pio-slave-port           64                       # Cumulative packet size per connected master and slave (bytes)
system.iobus.pkt_size_system.pc.south_bridge.io_apic.int_master::system.ruby.l1_cntrl3.sequencer.pio-slave-port           64                       # Cumulative packet size per connected master and slave (bytes)
system.iobus.pkt_size_system.pc.south_bridge.io_apic.int_master::total          256                       # Cumulative packet size per connected master and slave (bytes)
system.iobus.pkt_size_system.ruby.l1_cntrl0.sequencer.mem-master-port::system.pc.south_bridge.ide.pio          330                       # Cumulative packet size per connected master and slave (bytes)
system.iobus.pkt_size_system.ruby.l1_cntrl0.sequencer.mem-master-port::system.pc.south_bridge.io_apic.pio           16                       # Cumulative packet size per connected master and slave (bytes)
system.iobus.pkt_size_system.ruby.l1_cntrl0.sequencer.mem-master-port::system.pc.com_1.pio            1                       # Cumulative packet size per connected master and slave (bytes)
system.iobus.pkt_size_system.ruby.l1_cntrl0.sequencer.mem-master-port::system.ruby.l1_cntrl0.sequencer.pio-slave-port          960                       # Cumulative packet size per connected master and slave (bytes)
system.iobus.pkt_size_system.ruby.l1_cntrl0.sequencer.mem-master-port::system.ruby.l1_cntrl1.sequencer.pio-slave-port            8                       # Cumulative packet size per connected master and slave (bytes)
system.iobus.pkt_size_system.ruby.l1_cntrl0.sequencer.mem-master-port::system.ruby.l1_cntrl2.sequencer.pio-slave-port            4                       # Cumulative packet size per connected master and slave (bytes)
system.iobus.pkt_size_system.ruby.l1_cntrl0.sequencer.mem-master-port::system.ruby.l1_cntrl3.sequencer.pio-slave-port            8                       # Cumulative packet size per connected master and slave (bytes)
system.iobus.pkt_size_system.ruby.l1_cntrl0.sequencer.mem-master-port::total         1327                       # Cumulative packet size per connected master and slave (bytes)
system.iobus.pkt_size_system.ruby.l1_cntrl1.sequencer.mem-master-port::system.pc.south_bridge.ide.pio          550                       # Cumulative packet size per connected master and slave (bytes)
system.iobus.pkt_size_system.ruby.l1_cntrl1.sequencer.mem-master-port::system.pc.south_bridge.io_apic.pio           16                       # Cumulative packet size per connected master and slave (bytes)
system.iobus.pkt_size_system.ruby.l1_cntrl1.sequencer.mem-master-port::system.ruby.l1_cntrl0.sequencer.pio-slave-port            4                       # Cumulative packet size per connected master and slave (bytes)
system.iobus.pkt_size_system.ruby.l1_cntrl1.sequencer.mem-master-port::system.ruby.l1_cntrl1.sequencer.pio-slave-port          920                       # Cumulative packet size per connected master and slave (bytes)
system.iobus.pkt_size_system.ruby.l1_cntrl1.sequencer.mem-master-port::system.ruby.l1_cntrl2.sequencer.pio-slave-port            4                       # Cumulative packet size per connected master and slave (bytes)
system.iobus.pkt_size_system.ruby.l1_cntrl1.sequencer.mem-master-port::total         1494                       # Cumulative packet size per connected master and slave (bytes)
system.iobus.pkt_size_system.ruby.l1_cntrl2.sequencer.mem-master-port::system.pc.south_bridge.ide.pio          330                       # Cumulative packet size per connected master and slave (bytes)
system.iobus.pkt_size_system.ruby.l1_cntrl2.sequencer.mem-master-port::system.pc.south_bridge.io_apic.pio           16                       # Cumulative packet size per connected master and slave (bytes)
system.iobus.pkt_size_system.ruby.l1_cntrl2.sequencer.mem-master-port::system.ruby.l1_cntrl0.sequencer.pio-slave-port           12                       # Cumulative packet size per connected master and slave (bytes)
system.iobus.pkt_size_system.ruby.l1_cntrl2.sequencer.mem-master-port::system.ruby.l1_cntrl1.sequencer.pio-slave-port            4                       # Cumulative packet size per connected master and slave (bytes)
system.iobus.pkt_size_system.ruby.l1_cntrl2.sequencer.mem-master-port::system.ruby.l1_cntrl2.sequencer.pio-slave-port          948                       # Cumulative packet size per connected master and slave (bytes)
system.iobus.pkt_size_system.ruby.l1_cntrl2.sequencer.mem-master-port::system.ruby.l1_cntrl3.sequencer.pio-slave-port            4                       # Cumulative packet size per connected master and slave (bytes)
system.iobus.pkt_size_system.ruby.l1_cntrl2.sequencer.mem-master-port::total         1314                       # Cumulative packet size per connected master and slave (bytes)
system.iobus.pkt_size_system.ruby.l1_cntrl3.sequencer.mem-master-port::system.pc.south_bridge.ide.pio          350                       # Cumulative packet size per connected master and slave (bytes)
system.iobus.pkt_size_system.ruby.l1_cntrl3.sequencer.mem-master-port::system.pc.south_bridge.io_apic.pio           12                       # Cumulative packet size per connected master and slave (bytes)
system.iobus.pkt_size_system.ruby.l1_cntrl3.sequencer.mem-master-port::system.pc.com_1.pio           87                       # Cumulative packet size per connected master and slave (bytes)
system.iobus.pkt_size_system.ruby.l1_cntrl3.sequencer.mem-master-port::system.ruby.l1_cntrl0.sequencer.pio-slave-port            4                       # Cumulative packet size per connected master and slave (bytes)
system.iobus.pkt_size_system.ruby.l1_cntrl3.sequencer.mem-master-port::system.ruby.l1_cntrl1.sequencer.pio-slave-port            4                       # Cumulative packet size per connected master and slave (bytes)
system.iobus.pkt_size_system.ruby.l1_cntrl3.sequencer.mem-master-port::system.ruby.l1_cntrl3.sequencer.pio-slave-port          916                       # Cumulative packet size per connected master and slave (bytes)
system.iobus.pkt_size_system.ruby.l1_cntrl3.sequencer.mem-master-port::total         1373                       # Cumulative packet size per connected master and slave (bytes)
system.iobus.pkt_size::total                     5764                       # Cumulative packet size per connected master and slave (bytes)
system.iobus.reqLayer2.occupancy              2409500                       # Layer occupancy (ticks)
system.iobus.reqLayer2.utilization                0.0                       # Layer utilization (%)
system.iobus.reqLayer8.occupancy                26996                       # Layer occupancy (ticks)
system.iobus.reqLayer8.utilization                0.0                       # Layer utilization (%)
system.iobus.reqLayer12.occupancy              112500                       # Layer occupancy (ticks)
system.iobus.reqLayer12.utilization               0.0                       # Layer utilization (%)
system.iobus.reqLayer17.occupancy              642378                       # Layer occupancy (ticks)
system.iobus.reqLayer17.utilization               0.0                       # Layer utilization (%)
system.iobus.reqLayer18.occupancy              570984                       # Layer occupancy (ticks)
system.iobus.reqLayer18.utilization               0.0                       # Layer utilization (%)
system.iobus.reqLayer19.occupancy              634871                       # Layer occupancy (ticks)
system.iobus.reqLayer19.utilization               0.0                       # Layer utilization (%)
system.iobus.reqLayer20.occupancy              564485                       # Layer occupancy (ticks)
system.iobus.reqLayer20.utilization               0.0                       # Layer utilization (%)
system.iobus.respLayer0.occupancy              109440                       # Layer occupancy (ticks)
system.iobus.respLayer0.utilization               0.0                       # Layer utilization (%)
system.iobus.respLayer2.occupancy              779000                       # Layer occupancy (ticks)
system.iobus.respLayer2.utilization               0.0                       # Layer utilization (%)
system.iobus.respLayer4.occupancy              988000                       # Layer occupancy (ticks)
system.iobus.respLayer4.utilization               0.0                       # Layer utilization (%)
system.iobus.respLayer6.occupancy              773500                       # Layer occupancy (ticks)
system.iobus.respLayer6.utilization               0.0                       # Layer utilization (%)
system.iobus.respLayer8.occupancy              926500                       # Layer occupancy (ticks)
system.iobus.respLayer8.utilization               0.0                       # Layer utilization (%)
system.pc.south_bridge.ide.disks.dma_read_full_pages          886                       # Number of full page size DMA reads (not PRD).
system.pc.south_bridge.ide.disks.dma_read_bytes      3629056                       # Number of bytes transfered via DMA reads (not PRD).
[...]
system.ruby.DMA_Controller.ReadRequest   |       57231    100.00%    100.00% |           0      0.00%    100.00%
system.ruby.DMA_Controller.ReadRequest::total        57231                      
system.ruby.DMA_Controller.WriteRequest  |        3008    100.00%    100.00% |           0      0.00%    100.00%
system.ruby.DMA_Controller.WriteRequest::total         3008                      
system.ruby.DMA_Controller.Data          |       57231    100.00%    100.00% |           0      0.00%    100.00%
system.ruby.DMA_Controller.Data::total          57231                      
system.ruby.DMA_Controller.Ack           |        3008    100.00%    100.00% |           0      0.00%    100.00%
system.ruby.DMA_Controller.Ack::total            3008                      
system.ruby.DMA_Controller.READY.ReadRequest |       57231    100.00%    100.00% |           0      0.00%    100.00%
system.ruby.DMA_Controller.READY.ReadRequest::total        57231                      
system.ruby.DMA_Controller.READY.WriteRequest |        3008    100.00%    100.00% |           0      0.00%    100.00%
system.ruby.DMA_Controller.READY.WriteRequest::total         3008                      
system.ruby.DMA_Controller.BUSY_RD.Data  |       57231    100.00%    100.00% |           0      0.00%    100.00%
system.ruby.DMA_Controller.BUSY_RD.Data::total        57231                      
system.ruby.DMA_Controller.BUSY_WR.Ack   |        3008    100.00%    100.00% |           0      0.00%    100.00%
system.ruby.DMA_Controller.BUSY_WR.Ack::total         3008                      
system.ruby.L1Cache_Controller.Load      |    40242354     31.58%     31.58% |     1281934      1.01%     32.58% |    85304779     66.94%     99.52% |      611957      0.48%    100.00%
system.ruby.L1Cache_Controller.Load::total    127441024                      
system.ruby.L1Cache_Controller.Ifetch    |   168107895     32.81%     32.81% |     7016490      1.37%     34.18% |   334244868     65.23%     99.41% |     3004636      0.59%    100.00%
system.ruby.L1Cache_Controller.Ifetch::total    512373889                      
system.ruby.L1Cache_Controller.Store     |    11177732     26.50%     26.50% |      948445      2.25%     28.74% |    29615755     70.20%     98.94% |      446056      1.06%    100.00%
system.ruby.L1Cache_Controller.Store::total     42187988                      
system.ruby.L1Cache_Controller.Inv       |       69513     27.77%     27.77% |       60793     24.29%     52.06% |       59142     23.63%     75.68% |       60873     24.32%    100.00%
system.ruby.L1Cache_Controller.Inv::total       250321                      
system.ruby.L1Cache_Controller.L1_Replacement |     3280635     25.60%     25.60% |       96762      0.76%     26.36% |     9382803     73.22%     99.58% |       53856      0.42%    100.00%
system.ruby.L1Cache_Controller.L1_Replacement::total     12814056                      
system.ruby.L1Cache_Controller.Fwd_GETX  |         665     17.35%     17.35% |        1198     31.26%     48.62% |        1269     33.12%     81.73% |         700     18.27%    100.00%
system.ruby.L1Cache_Controller.Fwd_GETX::total         3832                      
system.ruby.L1Cache_Controller.Fwd_GETS  |        3686     17.43%     17.43% |        8862     41.90%     59.33% |        3525     16.67%     76.00% |        5077     24.00%    100.00%
system.ruby.L1Cache_Controller.Fwd_GETS::total        21150                      
system.ruby.L1Cache_Controller.Data      |         614     52.17%     52.17% |         136     11.55%     63.72% |         281     23.87%     87.60% |         146     12.40%    100.00%
system.ruby.L1Cache_Controller.Data::total         1177                      
system.ruby.L1Cache_Controller.Data_Exclusive |     2183532     24.73%     24.73% |       41103      0.47%     25.20% |     6583931     74.58%     99.78% |       19509      0.22%    100.00%
system.ruby.L1Cache_Controller.Data_Exclusive::total      8828075                      
system.ruby.L1Cache_Controller.DataS_fromL1 |        4927     23.30%     23.30% |        4051     19.15%     42.45% |        6483     30.65%     73.10% |        5689     26.90%    100.00%
system.ruby.L1Cache_Controller.DataS_fromL1::total        21150                      
system.ruby.L1Cache_Controller.Data_all_Acks |     1142178     27.48%     27.48% |      102749      2.47%     29.96% |     2830729     68.12%     98.07% |       80011      1.93%    100.00%
system.ruby.L1Cache_Controller.Data_all_Acks::total      4155667                      
system.ruby.L1Cache_Controller.Ack       |        8574     45.68%     45.68% |        3190     17.00%     62.68% |        3458     18.42%     81.10% |        3547     18.90%    100.00%
system.ruby.L1Cache_Controller.Ack::total        18769                      
system.ruby.L1Cache_Controller.Ack_all   |        4651     36.43%     36.43% |        2574     20.16%     56.60% |        2665     20.88%     77.47% |        2876     22.53%    100.00%
system.ruby.L1Cache_Controller.Ack_all::total        12766                      
system.ruby.L1Cache_Controller.WB_Ack    |     3214970     25.83%     25.83% |       37728      0.30%     26.13% |     9176877     73.73%     99.87% |       16572      0.13%    100.00%
system.ruby.L1Cache_Controller.WB_Ack::total     12446147                      
system.ruby.L1Cache_Controller.NP.Load   |     2196513     24.46%     24.46% |       32331      0.36%     24.82% |     6737273     75.02%     99.84% |       14687      0.16%    100.00%
system.ruby.L1Cache_Controller.NP.Load::total      8980804                      
system.ruby.L1Cache_Controller.NP.Ifetch |       43642     25.62%     25.62% |       52248     30.67%     56.28% |       43405     25.48%     81.76% |       31072     18.24%    100.00%
system.ruby.L1Cache_Controller.NP.Ifetch::total       170367                      
system.ruby.L1Cache_Controller.NP.Store  |     1040480     28.40%     28.40% |       12270      0.33%     28.74% |     2602125     71.03%     99.77% |        8558      0.23%    100.00%
system.ruby.L1Cache_Controller.NP.Store::total      3663433                      
system.ruby.L1Cache_Controller.NP.Inv    |       12530     34.37%     34.37% |        5519     15.14%     49.51% |       14448     39.64%     89.15% |        3955     10.85%    100.00%
system.ruby.L1Cache_Controller.NP.Inv::total        36452                      
system.ruby.L1Cache_Controller.I.Load    |       12651     23.07%     23.07% |       17185     31.34%     54.41% |        8651     15.78%     70.18% |       16352     29.82%    100.00%
system.ruby.L1Cache_Controller.I.Load::total        54839                      
system.ruby.L1Cache_Controller.I.Ifetch  |       32201     28.69%     28.69% |       25921     23.10%     51.79% |       27721     24.70%     76.49% |       26389     23.51%    100.00%
system.ruby.L1Cache_Controller.I.Ifetch::total       112232                      
system.ruby.L1Cache_Controller.I.Store   |        5764     23.63%     23.63% |        8084     33.14%     56.77% |        2249      9.22%     65.99% |        8297     34.01%    100.00%
system.ruby.L1Cache_Controller.I.Store::total        24394                      
system.ruby.L1Cache_Controller.I.L1_Replacement |        6867     26.51%     26.51% |        5185     20.02%     46.53% |        7055     27.24%     73.76% |        6796     26.24%    100.00%
system.ruby.L1Cache_Controller.I.L1_Replacement::total        25903                      
system.ruby.L1Cache_Controller.S.Load    |      569266     32.44%     32.44% |      141869      8.09%     40.53% |      941384     53.65%     94.18% |      102095      5.82%    100.00%
system.ruby.L1Cache_Controller.S.Load::total      1754614                      
system.ruby.L1Cache_Controller.S.Ifetch  |   168032052     32.81%     32.81% |     6938319      1.35%     34.17% |   334173742     65.26%     99.42% |     2947175      0.58%    100.00%
system.ruby.L1Cache_Controller.S.Ifetch::total    512091288                      
system.ruby.L1Cache_Controller.S.Store   |        4037     34.83%     34.83% |        2438     21.04%     55.87% |        2384     20.57%     76.44% |        2730     23.56%    100.00%
system.ruby.L1Cache_Controller.S.Store::total        11589                      
system.ruby.L1Cache_Controller.S.Inv     |       42289     26.81%     26.81% |       39323     24.93%     51.73% |       35249     22.34%     74.08% |       40891     25.92%    100.00%
system.ruby.L1Cache_Controller.S.Inv::total       157752                      
system.ruby.L1Cache_Controller.S.L1_Replacement |       58798     17.19%     17.19% |       53849     15.75%     32.94% |      198871     58.15%     91.09% |       30488      8.91%    100.00%
system.ruby.L1Cache_Controller.S.L1_Replacement::total       342006                      
system.ruby.L1Cache_Controller.E.Load    |    30027667     33.73%     33.73% |      258418      0.29%     34.02% |    58641402     65.86%     99.88% |      106756      0.12%    100.00%
system.ruby.L1Cache_Controller.E.Load::total     89034243                      
system.ruby.L1Cache_Controller.E.Store   |       79317      6.86%      6.86% |       14790      1.28%      8.14% |     1056328     91.41%     99.56% |        5135      0.44%    100.00%
system.ruby.L1Cache_Controller.E.Store::total      1155570                      
system.ruby.L1Cache_Controller.E.Inv     |        5803     26.94%     26.94% |        5275     24.49%     51.43% |        5641     26.19%     77.62% |        4821     22.38%    100.00%
system.ruby.L1Cache_Controller.E.Inv::total        21540                      
system.ruby.L1Cache_Controller.E.L1_Replacement |     2097006     27.46%     27.46% |       14125      0.18%     27.64% |     5520020     72.27%     99.91% |        6595      0.09%    100.00%
system.ruby.L1Cache_Controller.E.L1_Replacement::total      7637746                      
system.ruby.L1Cache_Controller.E.Fwd_GETX |         125      7.92%      7.92% |         715     45.31%     53.23% |         663     42.02%     95.25% |          75      4.75%    100.00%
system.ruby.L1Cache_Controller.E.Fwd_GETX::total         1578                      
system.ruby.L1Cache_Controller.E.Fwd_GETS |        1207     10.56%     10.56% |        6221     54.41%     64.97% |        1528     13.36%     78.33% |        2477     21.67%    100.00%
system.ruby.L1Cache_Controller.E.Fwd_GETS::total        11433                      
system.ruby.L1Cache_Controller.M.Load    |     7436257     26.93%     26.93% |      832131      3.01%     29.94% |    18976069     68.71%     98.65% |      372067      1.35%    100.00%
system.ruby.L1Cache_Controller.M.Load::total     27616524                      
system.ruby.L1Cache_Controller.M.Store   |    10048134     26.91%     26.91% |      910863      2.44%     29.35% |    25952669     69.52%     98.87% |      421336      1.13%    100.00%
system.ruby.L1Cache_Controller.M.Store::total     37333002                      
system.ruby.L1Cache_Controller.M.Inv     |        8891     25.71%     25.71% |       10676     30.88%     56.59% |        3804     11.00%     67.59% |       11206     32.41%    100.00%
system.ruby.L1Cache_Controller.M.Inv::total        34577                      
system.ruby.L1Cache_Controller.M.L1_Replacement |     1117964     23.25%     23.25% |       23603      0.49%     23.74% |     3656857     76.05%     99.79% |        9977      0.21%    100.00%
system.ruby.L1Cache_Controller.M.L1_Replacement::total      4808401                      
system.ruby.L1Cache_Controller.M.Fwd_GETX |         540     23.96%     23.96% |         483     21.43%     45.39% |         606     26.89%     72.27% |         625     27.73%    100.00%
system.ruby.L1Cache_Controller.M.Fwd_GETX::total         2254                      
system.ruby.L1Cache_Controller.M.Fwd_GETS |        2479     25.51%     25.51% |        2641     27.18%     52.69% |        1997     20.55%     73.24% |        2600     26.76%    100.00%
system.ruby.L1Cache_Controller.M.Fwd_GETS::total         9717                      
system.ruby.L1Cache_Controller.IS.Data_Exclusive |     2183532     24.73%     24.73% |       41103      0.47%     25.20% |     6583931     74.58%     99.78% |       19509      0.22%    100.00%
system.ruby.L1Cache_Controller.IS.Data_Exclusive::total      8828075                      
system.ruby.L1Cache_Controller.IS.DataS_fromL1 |        4927     23.30%     23.30% |        4051     19.15%     42.45% |        6483     30.65%     73.10% |        5689     26.90%    100.00%
system.ruby.L1Cache_Controller.IS.DataS_fromL1::total        21150                      
system.ruby.L1Cache_Controller.IS.Data_all_Acks |       96548     20.59%     20.59% |       82531     17.60%     38.18% |      226636     48.32%     86.50% |       63302     13.50%    100.00%
system.ruby.L1Cache_Controller.IS.Data_all_Acks::total       469017                      
system.ruby.L1Cache_Controller.IM.Data   |         614     52.17%     52.17% |         136     11.55%     63.72% |         281     23.87%     87.60% |         146     12.40%    100.00%
system.ruby.L1Cache_Controller.IM.Data::total         1177                      
system.ruby.L1Cache_Controller.IM.Data_all_Acks |     1045630     28.36%     28.36% |       20218      0.55%     28.91% |     2604093     70.64%     99.55% |       16709      0.45%    100.00%
system.ruby.L1Cache_Controller.IM.Data_all_Acks::total      3686650                      
system.ruby.L1Cache_Controller.SM.Ack    |        8574     45.68%     45.68% |        3190     17.00%     62.68% |        3458     18.42%     81.10% |        3547     18.90%    100.00%
system.ruby.L1Cache_Controller.SM.Ack::total        18769                      
system.ruby.L1Cache_Controller.SM.Ack_all |        4651     36.43%     36.43% |        2574     20.16%     56.60% |        2665     20.88%     77.47% |        2876     22.53%    100.00%
system.ruby.L1Cache_Controller.SM.Ack_all::total        12766                      
system.ruby.L1Cache_Controller.M_I.Ifetch |           0      0.00%      0.00% |           2    100.00%    100.00% |           0      0.00%    100.00% |           0      0.00%    100.00%
system.ruby.L1Cache_Controller.M_I.Ifetch::total            2                      
system.ruby.L1Cache_Controller.M_I.WB_Ack |     3214970     25.83%     25.83% |       37728      0.30%     26.13% |     9176877     73.73%     99.87% |       16572      0.13%    100.00%
system.ruby.L1Cache_Controller.M_I.WB_Ack::total     12446147                      
system.ruby.L2Cache_Controller.L1_GET_INSTR       282601      0.00%      0.00%
system.ruby.L2Cache_Controller.L1_GETS        9035706      0.00%      0.00%
system.ruby.L2Cache_Controller.L1_GETX        3687831      0.00%      0.00%
system.ruby.L2Cache_Controller.L1_UPGRADE        11589      0.00%      0.00%
system.ruby.L2Cache_Controller.L1_PUTX       12446147      0.00%      0.00%
system.ruby.L2Cache_Controller.L2_Replacement      4058515      0.00%      0.00%
system.ruby.L2Cache_Controller.L2_Replacement_clean      3352794      0.00%      0.00%
system.ruby.L2Cache_Controller.Mem_Data       7417542      0.00%      0.00%
system.ruby.L2Cache_Controller.Mem_Ack        7411571      0.00%      0.00%
system.ruby.L2Cache_Controller.WB_Data          44294      0.00%      0.00%
system.ruby.L2Cache_Controller.WB_Data_clean        11433      0.00%      0.00%
system.ruby.L2Cache_Controller.Ack              95480      0.00%      0.00%
system.ruby.L2Cache_Controller.Ack_all         100318      0.00%      0.00%
system.ruby.L2Cache_Controller.Unblock          21150      0.00%      0.00%
system.ruby.L2Cache_Controller.Exclusive_Unblock     12527491      0.00%      0.00%
system.ruby.L2Cache_Controller.MEM_Inv            524      0.00%      0.00%
system.ruby.L2Cache_Controller.NP.L1_GET_INSTR        72594      0.00%      0.00%
system.ruby.L2Cache_Controller.NP.L1_GETS      4205696      0.00%      0.00%
system.ruby.L2Cache_Controller.NP.L1_GETX      3139252      0.00%      0.00%
system.ruby.L2Cache_Controller.SS.L1_GET_INSTR       209987      0.00%      0.00%
system.ruby.L2Cache_Controller.SS.L1_GETS       186410      0.00%      0.00%
system.ruby.L2Cache_Controller.SS.L1_GETX         1177      0.00%      0.00%
system.ruby.L2Cache_Controller.SS.L1_UPGRADE        11589      0.00%      0.00%
system.ruby.L2Cache_Controller.SS.L2_Replacement         1989      0.00%      0.00%
system.ruby.L2Cache_Controller.SS.L2_Replacement_clean        76789      0.00%      0.00%
system.ruby.L2Cache_Controller.M.L1_GET_INSTR           18      0.00%      0.00%
system.ruby.L2Cache_Controller.M.L1_GETS      4622383      0.00%      0.00%
system.ruby.L2Cache_Controller.M.L1_GETX       543566      0.00%      0.00%
system.ruby.L2Cache_Controller.M.L2_Replacement      4053549      0.00%      0.00%
system.ruby.L2Cache_Controller.M.L2_Replacement_clean      3223002      0.00%      0.00%
system.ruby.L2Cache_Controller.M.MEM_Inv          125      0.00%      0.00%
system.ruby.L2Cache_Controller.MT.L1_GETS        21150      0.00%      0.00%
system.ruby.L2Cache_Controller.MT.L1_GETX         3832      0.00%      0.00%
system.ruby.L2Cache_Controller.MT.L1_PUTX     12446147      0.00%      0.00%
system.ruby.L2Cache_Controller.MT.L2_Replacement         2977      0.00%      0.00%
system.ruby.L2Cache_Controller.MT.L2_Replacement_clean        53003      0.00%      0.00%
system.ruby.L2Cache_Controller.MT.MEM_Inv          137      0.00%      0.00%
system.ruby.L2Cache_Controller.M_I.L1_GET_INSTR            2      0.00%      0.00%
system.ruby.L2Cache_Controller.M_I.L1_GETS            5      0.00%      0.00%
system.ruby.L2Cache_Controller.M_I.Mem_Ack      7411571      0.00%      0.00%
system.ruby.L2Cache_Controller.M_I.MEM_Inv          125      0.00%      0.00%
system.ruby.L2Cache_Controller.MT_I.WB_Data         2433      0.00%      0.00%
system.ruby.L2Cache_Controller.MT_I.Ack_all          681      0.00%      0.00%
system.ruby.L2Cache_Controller.MT_I.MEM_Inv          137      0.00%      0.00%
system.ruby.L2Cache_Controller.MCT_I.WB_Data        32144      0.00%      0.00%
system.ruby.L2Cache_Controller.MCT_I.Ack_all        20859      0.00%      0.00%
system.ruby.L2Cache_Controller.I_I.Ack          93144      0.00%      0.00%
system.ruby.L2Cache_Controller.I_I.Ack_all        76789      0.00%      0.00%
system.ruby.L2Cache_Controller.S_I.Ack           2336      0.00%      0.00%
system.ruby.L2Cache_Controller.S_I.Ack_all         1989      0.00%      0.00%
system.ruby.L2Cache_Controller.ISS.L1_GETS            4      0.00%      0.00%
system.ruby.L2Cache_Controller.ISS.Mem_Data      4205692      0.00%      0.00%
system.ruby.L2Cache_Controller.IS.Mem_Data        72598      0.00%      0.00%
system.ruby.L2Cache_Controller.IM.Mem_Data      3139252      0.00%      0.00%
system.ruby.L2Cache_Controller.SS_MB.L1_GETS           36      0.00%      0.00%
system.ruby.L2Cache_Controller.SS_MB.L1_GETX            1      0.00%      0.00%
system.ruby.L2Cache_Controller.SS_MB.Exclusive_Unblock        12766      0.00%      0.00%
system.ruby.L2Cache_Controller.MT_MB.L1_GETS           19      0.00%      0.00%
system.ruby.L2Cache_Controller.MT_MB.L1_GETX            2      0.00%      0.00%
system.ruby.L2Cache_Controller.MT_MB.Exclusive_Unblock     12514725      0.00%      0.00%
system.ruby.L2Cache_Controller.MT_IIB.L1_GETS            3      0.00%      0.00%
system.ruby.L2Cache_Controller.MT_IIB.L1_GETX            1      0.00%      0.00%
system.ruby.L2Cache_Controller.MT_IIB.WB_Data         9680      0.00%      0.00%
system.ruby.L2Cache_Controller.MT_IIB.WB_Data_clean        11404      0.00%      0.00%
system.ruby.L2Cache_Controller.MT_IIB.Unblock           66      0.00%      0.00%
system.ruby.L2Cache_Controller.MT_IB.WB_Data           37      0.00%      0.00%
system.ruby.L2Cache_Controller.MT_IB.WB_Data_clean           29      0.00%      0.00%
system.ruby.L2Cache_Controller.MT_SB.Unblock        21084      0.00%      0.00%

---------- End Simulation Statistics   ----------
