
---------- Begin Simulation Statistics ----------
sim_seconds                                  3.935787                       # Number of seconds simulated
sim_ticks                                3935787372000                       # Number of ticks simulated
final_tick                               56133310791001                       # Number of ticks from beginning of simulation (restored from checkpoints and never reset)
sim_freq                                 1000000000000                       # Frequency of simulated ticks
host_inst_rate                                 162717                       # Simulator instruction rate (inst/s)
host_op_rate                                   228122                       # Simulator op (including micro ops) rate (op/s)
host_tick_rate                              284559866                       # Simulator tick rate (ticks/s)
host_mem_usage                                1935760                       # Number of bytes of host memory used
host_seconds                                 13831.14                       # Real time elapsed on the host
sim_insts                                  2250563849                       # Number of instructions simulated
sim_ops                                    3155182218                       # Number of ops (including micro ops) simulated
system.voltage_domain.voltage                       1                       # Voltage in Volts
system.clk_domain.clock                          1000                       # Clock period in ticks
system.mem_ctrls0.bytes_read::ruby.dir_cntrl0     59856384                       # Number of bytes read from this memory
system.mem_ctrls0.bytes_read::total          59856384                       # Number of bytes read from this memory
system.mem_ctrls0.bytes_written::ruby.dir_cntrl0     25202752                       # Number of bytes written to this memory
system.mem_ctrls0.bytes_written::total       25202752                       # Number of bytes written to this memory
system.mem_ctrls0.num_reads::ruby.dir_cntrl0       935256                       # Number of read requests responded to by this memory
system.mem_ctrls0.num_reads::total             935256                       # Number of read requests responded to by this memory
system.mem_ctrls0.num_writes::ruby.dir_cntrl0       393793                       # Number of write requests responded to by this memory
system.mem_ctrls0.num_writes::total            393793                       # Number of write requests responded to by this memory
system.mem_ctrls0.bw_read::ruby.dir_cntrl0     15208236                       # Total read bandwidth from this memory (bytes/s)
system.mem_ctrls0.bw_read::total             15208236                       # Total read bandwidth from this memory (bytes/s)
system.mem_ctrls0.bw_write::ruby.dir_cntrl0      6403484                       # Write bandwidth from this memory (bytes/s)
system.mem_ctrls0.bw_write::total             6403484                       # Write bandwidth from this memory (bytes/s)
system.mem_ctrls0.bw_total::ruby.dir_cntrl0     21611720                       # Total bandwidth to/from this memory (bytes/s)
system.mem_ctrls0.bw_total::total            21611720                       # Total bandwidth to/from this memory (bytes/s)
system.mem_ctrls0.readReqs                     935256                       # Number of read requests accepted
system.mem_ctrls0.writeReqs                    393793                       # Number of write requests accepted
system.mem_ctrls0.readBursts                   935256                       # Number of DRAM read bursts, including those serviced by the write queue
system.mem_ctrls0.writeBursts                  393793                       # Number of DRAM write bursts, including those merged in the write queue
system.mem_ctrls0.bytesReadDRAM              59800320                       # Total number of bytes read from DRAM
system.mem_ctrls0.bytesReadWrQ                  56064                       # Total number of bytes read from write queue
system.mem_ctrls0.bytesWritten               25201984                       # Total number of bytes written to DRAM
system.mem_ctrls0.bytesReadSys               59856384                       # Total read bytes from the system interface side
system.mem_ctrls0.bytesWrittenSys            25202752                       # Total written bytes from the system interface side
system.mem_ctrls0.servicedByWrQ                   876                       # Number of DRAM read bursts serviced by the write queue
system.mem_ctrls0.mergedWrBursts                    0                       # Number of DRAM write bursts merged with an existing one
system.mem_ctrls0.neitherReadNorWriteReqs            0                       # Number of requests that are neither read nor write
system.mem_ctrls0.perBankRdBursts::0            62518                       # Per bank write bursts
system.mem_ctrls0.perBankRdBursts::1            60302                       # Per bank write bursts
system.mem_ctrls0.perBankRdBursts::2            64963                       # Per bank write bursts
system.mem_ctrls0.perBankRdBursts::3            66129                       # Per bank write bursts
system.mem_ctrls0.perBankRdBursts::4            68804                       # Per bank write bursts
system.mem_ctrls0.perBankRdBursts::5            61765                       # Per bank write bursts
system.mem_ctrls0.perBankRdBursts::6            56048                       # Per bank write bursts
system.mem_ctrls0.perBankRdBursts::7            55731                       # Per bank write bursts
system.mem_ctrls0.perBankRdBursts::8            52948                       # Per bank write bursts
system.mem_ctrls0.perBankRdBursts::9            53063                       # Per bank write bursts
system.mem_ctrls0.perBankRdBursts::10           53507                       # Per bank write bursts
system.mem_ctrls0.perBankRdBursts::11           54128                       # Per bank write bursts
system.mem_ctrls0.perBankRdBursts::12           51519                       # Per bank write bursts
system.mem_ctrls0.perBankRdBursts::13           51011                       # Per bank write bursts
system.mem_ctrls0.perBankRdBursts::14           62660                       # Per bank write bursts
system.mem_ctrls0.perBankRdBursts::15           59284                       # Per bank write bursts
system.mem_ctrls0.perBankWrBursts::0            26044                       # Per bank write bursts
system.mem_ctrls0.perBankWrBursts::1            25074                       # Per bank write bursts
system.mem_ctrls0.perBankWrBursts::2            26862                       # Per bank write bursts
system.mem_ctrls0.perBankWrBursts::3            27604                       # Per bank write bursts
system.mem_ctrls0.perBankWrBursts::4            28173                       # Per bank write bursts
system.mem_ctrls0.perBankWrBursts::5            25413                       # Per bank write bursts
system.mem_ctrls0.perBankWrBursts::6            23991                       # Per bank write bursts
system.mem_ctrls0.perBankWrBursts::7            23960                       # Per bank write bursts
system.mem_ctrls0.perBankWrBursts::8            22886                       # Per bank write bursts
system.mem_ctrls0.perBankWrBursts::9            22588                       # Per bank write bursts
system.mem_ctrls0.perBankWrBursts::10           22936                       # Per bank write bursts
system.mem_ctrls0.perBankWrBursts::11           23266                       # Per bank write bursts
system.mem_ctrls0.perBankWrBursts::12           22109                       # Per bank write bursts
system.mem_ctrls0.perBankWrBursts::13           21955                       # Per bank write bursts
system.mem_ctrls0.perBankWrBursts::14           26258                       # Per bank write bursts
system.mem_ctrls0.perBankWrBursts::15           24662                       # Per bank write bursts
system.mem_ctrls0.numRdRetry                        0                       # Number of times read queue was full causing retry
system.mem_ctrls0.numWrRetry                        0                       # Number of times write queue was full causing retry
system.mem_ctrls0.totGap                 3935787467000                       # Total gap between requests
system.mem_ctrls0.readPktSize::0                    0                       # Read request sizes (log2)
system.mem_ctrls0.readPktSize::1                    0                       # Read request sizes (log2)
system.mem_ctrls0.readPktSize::2                    0                       # Read request sizes (log2)
system.mem_ctrls0.readPktSize::3                    0                       # Read request sizes (log2)
system.mem_ctrls0.readPktSize::4                    0                       # Read request sizes (log2)
system.mem_ctrls0.readPktSize::5                    0                       # Read request sizes (log2)
system.mem_ctrls0.readPktSize::6               935256                       # Read request sizes (log2)
system.mem_ctrls0.writePktSize::0                   0                       # Write request sizes (log2)
system.mem_ctrls0.writePktSize::1                   0                       # Write request sizes (log2)
system.mem_ctrls0.writePktSize::2                   0                       # Write request sizes (log2)
system.mem_ctrls0.writePktSize::3                   0                       # Write request sizes (log2)
system.mem_ctrls0.writePktSize::4                   0                       # Write request sizes (log2)
system.mem_ctrls0.writePktSize::5                   0                       # Write request sizes (log2)
system.mem_ctrls0.writePktSize::6              393793                       # Write request sizes (log2)
system.mem_ctrls0.rdQLenPdf::0                 934102                       # What read queue length does an incoming req see
system.mem_ctrls0.rdQLenPdf::1                    278                       # What read queue length does an incoming req see
system.mem_ctrls0.rdQLenPdf::2                      0                       # What read queue length does an incoming req see
system.mem_ctrls0.rdQLenPdf::3                      0                       # What read queue length does an incoming req see
system.mem_ctrls0.rdQLenPdf::4                      0                       # What read queue length does an incoming req see
system.mem_ctrls0.rdQLenPdf::5                      0                       # What read queue length does an incoming req see
system.mem_ctrls0.rdQLenPdf::6                      0                       # What read queue length does an incoming req see
system.mem_ctrls0.rdQLenPdf::7                      0                       # What read queue length does an incoming req see
system.mem_ctrls0.rdQLenPdf::8                      0                       # What read queue length does an incoming req see
system.mem_ctrls0.rdQLenPdf::9                      0                       # What read queue length does an incoming req see
system.mem_ctrls0.rdQLenPdf::10                     0                       # What read queue length does an incoming req see
system.mem_ctrls0.rdQLenPdf::11                     0                       # What read queue length does an incoming req see
system.mem_ctrls0.rdQLenPdf::12                     0                       # What read queue length does an incoming req see
system.mem_ctrls0.rdQLenPdf::13                     0                       # What read queue length does an incoming req see
system.mem_ctrls0.rdQLenPdf::14                     0                       # What read queue length does an incoming req see
system.mem_ctrls0.rdQLenPdf::15                     0                       # What read queue length does an incoming req see
system.mem_ctrls0.rdQLenPdf::16                     0                       # What read queue length does an incoming req see
system.mem_ctrls0.rdQLenPdf::17                     0                       # What read queue length does an incoming req see
system.mem_ctrls0.rdQLenPdf::18                     0                       # What read queue length does an incoming req see
system.mem_ctrls0.rdQLenPdf::19                     0                       # What read queue length does an incoming req see
system.mem_ctrls0.rdQLenPdf::20                     0                       # What read queue length does an incoming req see
system.mem_ctrls0.rdQLenPdf::21                     0                       # What read queue length does an incoming req see
system.mem_ctrls0.rdQLenPdf::22                     0                       # What read queue length does an incoming req see
system.mem_ctrls0.rdQLenPdf::23                     0                       # What read queue length does an incoming req see
system.mem_ctrls0.rdQLenPdf::24                     0                       # What read queue length does an incoming req see
system.mem_ctrls0.rdQLenPdf::25                     0                       # What read queue length does an incoming req see
system.mem_ctrls0.rdQLenPdf::26                     0                       # What read queue length does an incoming req see
system.mem_ctrls0.rdQLenPdf::27                     0                       # What read queue length does an incoming req see
system.mem_ctrls0.rdQLenPdf::28                     0                       # What read queue length does an incoming req see
system.mem_ctrls0.rdQLenPdf::29                     0                       # What read queue length does an incoming req see
system.mem_ctrls0.rdQLenPdf::30                     0                       # What read queue length does an incoming req see
system.mem_ctrls0.rdQLenPdf::31                     0                       # What read queue length does an incoming req see
system.mem_ctrls0.wrQLenPdf::0                      0                       # What write queue length does an incoming req see
system.mem_ctrls0.wrQLenPdf::1                      0                       # What write queue length does an incoming req see
system.mem_ctrls0.wrQLenPdf::2                      0                       # What write queue length does an incoming req see
system.mem_ctrls0.wrQLenPdf::3                      1                       # What write queue length does an incoming req see
system.mem_ctrls0.wrQLenPdf::4                      1                       # What write queue length does an incoming req see
system.mem_ctrls0.wrQLenPdf::5                      1                       # What write queue length does an incoming req see
system.mem_ctrls0.wrQLenPdf::6                      1                       # What write queue length does an incoming req see
system.mem_ctrls0.wrQLenPdf::7                      1                       # What write queue length does an incoming req see
system.mem_ctrls0.wrQLenPdf::8                      1                       # What write queue length does an incoming req see
system.mem_ctrls0.wrQLenPdf::9                      1                       # What write queue length does an incoming req see
system.mem_ctrls0.wrQLenPdf::10                     1                       # What write queue length does an incoming req see
system.mem_ctrls0.wrQLenPdf::11                     1                       # What write queue length does an incoming req see
system.mem_ctrls0.wrQLenPdf::12                     1                       # What write queue length does an incoming req see
system.mem_ctrls0.wrQLenPdf::13                     1                       # What write queue length does an incoming req see
system.mem_ctrls0.wrQLenPdf::14                     1                       # What write queue length does an incoming req see
system.mem_ctrls0.wrQLenPdf::15                 18051                       # What write queue length does an incoming req see
system.mem_ctrls0.wrQLenPdf::16                 18622                       # What write queue length does an incoming req see
system.mem_ctrls0.wrQLenPdf::17                 21489                       # What write queue length does an incoming req see
system.mem_ctrls0.wrQLenPdf::18                 22567                       # What write queue length does an incoming req see
system.mem_ctrls0.wrQLenPdf::19                 22563                       # What write queue length does an incoming req see
system.mem_ctrls0.wrQLenPdf::20                 22428                       # What write queue length does an incoming req see
system.mem_ctrls0.wrQLenPdf::21                 22385                       # What write queue length does an incoming req see
system.mem_ctrls0.wrQLenPdf::22                 22349                       # What write queue length does an incoming req see
system.mem_ctrls0.wrQLenPdf::23                 22366                       # What write queue length does an incoming req see
system.mem_ctrls0.wrQLenPdf::24                 22386                       # What write queue length does an incoming req see
system.mem_ctrls0.wrQLenPdf::25                 22344                       # What write queue length does an incoming req see
system.mem_ctrls0.wrQLenPdf::26                 22329                       # What write queue length does an incoming req see
system.mem_ctrls0.wrQLenPdf::27                 22339                       # What write queue length does an incoming req see
system.mem_ctrls0.wrQLenPdf::28                 22361                       # What write queue length does an incoming req see
system.mem_ctrls0.wrQLenPdf::29                 22330                       # What write queue length does an incoming req see
system.mem_ctrls0.wrQLenPdf::30                 22288                       # What write queue length does an incoming req see
system.mem_ctrls0.wrQLenPdf::31                 22278                       # What write queue length does an incoming req see
system.mem_ctrls0.wrQLenPdf::32                 22273                       # What write queue length does an incoming req see
system.mem_ctrls0.wrQLenPdf::33                    29                       # What write queue length does an incoming req see
system.mem_ctrls0.wrQLenPdf::34                     2                       # What write queue length does an incoming req see
system.mem_ctrls0.wrQLenPdf::35                     1                       # What write queue length does an incoming req see
system.mem_ctrls0.wrQLenPdf::36                     1                       # What write queue length does an incoming req see
system.mem_ctrls0.wrQLenPdf::37                     0                       # What write queue length does an incoming req see
system.mem_ctrls0.wrQLenPdf::38                     0                       # What write queue length does an incoming req see
system.mem_ctrls0.wrQLenPdf::39                     0                       # What write queue length does an incoming req see
system.mem_ctrls0.wrQLenPdf::40                     0                       # What write queue length does an incoming req see
system.mem_ctrls0.wrQLenPdf::41                     0                       # What write queue length does an incoming req see
system.mem_ctrls0.wrQLenPdf::42                     0                       # What write queue length does an incoming req see
system.mem_ctrls0.wrQLenPdf::43                     0                       # What write queue length does an incoming req see
system.mem_ctrls0.wrQLenPdf::44                     0                       # What write queue length does an incoming req see
system.mem_ctrls0.wrQLenPdf::45                     0                       # What write queue length does an incoming req see
system.mem_ctrls0.wrQLenPdf::46                     0                       # What write queue length does an incoming req see
system.mem_ctrls0.wrQLenPdf::47                     0                       # What write queue length does an incoming req see
system.mem_ctrls0.wrQLenPdf::48                     0                       # What write queue length does an incoming req see
system.mem_ctrls0.wrQLenPdf::49                     0                       # What write queue length does an incoming req see
system.mem_ctrls0.wrQLenPdf::50                     0                       # What write queue length does an incoming req see
system.mem_ctrls0.wrQLenPdf::51                     0                       # What write queue length does an incoming req see
system.mem_ctrls0.wrQLenPdf::52                     0                       # What write queue length does an incoming req see
system.mem_ctrls0.wrQLenPdf::53                     0                       # What write queue length does an incoming req see
system.mem_ctrls0.wrQLenPdf::54                     0                       # What write queue length does an incoming req see
system.mem_ctrls0.wrQLenPdf::55                     0                       # What write queue length does an incoming req see
system.mem_ctrls0.wrQLenPdf::56                     0                       # What write queue length does an incoming req see
system.mem_ctrls0.wrQLenPdf::57                     0                       # What write queue length does an incoming req see
system.mem_ctrls0.wrQLenPdf::58                     0                       # What write queue length does an incoming req see
system.mem_ctrls0.wrQLenPdf::59                     0                       # What write queue length does an incoming req see
system.mem_ctrls0.wrQLenPdf::60                     0                       # What write queue length does an incoming req see
system.mem_ctrls0.wrQLenPdf::61                     0                       # What write queue length does an incoming req see
system.mem_ctrls0.wrQLenPdf::62                     0                       # What write queue length does an incoming req see
system.mem_ctrls0.wrQLenPdf::63                     0                       # What write queue length does an incoming req see
system.mem_ctrls0.bytesPerActivate::samples       755717                       # Bytes accessed per row activation
system.mem_ctrls0.bytesPerActivate::mean   112.478084                       # Bytes accessed per row activation
system.mem_ctrls0.bytesPerActivate::gmean    88.467824                       # Bytes accessed per row activation
system.mem_ctrls0.bytesPerActivate::stdev   129.105530                       # Bytes accessed per row activation
system.mem_ctrls0.bytesPerActivate::0-127       512846     67.86%     67.86% # Bytes accessed per row activation
system.mem_ctrls0.bytesPerActivate::128-255       191177     25.30%     93.16% # Bytes accessed per row activation
system.mem_ctrls0.bytesPerActivate::256-383        22475      2.97%     96.13% # Bytes accessed per row activation
system.mem_ctrls0.bytesPerActivate::384-511         6301      0.83%     96.97% # Bytes accessed per row activation
system.mem_ctrls0.bytesPerActivate::512-639         8585      1.14%     98.10% # Bytes accessed per row activation
system.mem_ctrls0.bytesPerActivate::640-767         5075      0.67%     98.77% # Bytes accessed per row activation
system.mem_ctrls0.bytesPerActivate::768-895         1919      0.25%     99.03% # Bytes accessed per row activation
system.mem_ctrls0.bytesPerActivate::896-1023          869      0.11%     99.14% # Bytes accessed per row activation
system.mem_ctrls0.bytesPerActivate::1024-1151         6470      0.86%    100.00% # Bytes accessed per row activation
system.mem_ctrls0.bytesPerActivate::total       755717                       # Bytes accessed per row activation
system.mem_ctrls0.rdPerTurnAround::samples        22272                       # Reads before turning the bus around for writes
system.mem_ctrls0.rdPerTurnAround::mean     42.333827                       # Reads before turning the bus around for writes
system.mem_ctrls0.rdPerTurnAround::stdev    76.154344                       # Reads before turning the bus around for writes
system.mem_ctrls0.rdPerTurnAround::0-511        22267     99.98%     99.98% # Reads before turning the bus around for writes
system.mem_ctrls0.rdPerTurnAround::512-1023            3      0.01%     99.99% # Reads before turning the bus around for writes
system.mem_ctrls0.rdPerTurnAround::1024-1535            1      0.00%    100.00% # Reads before turning the bus around for writes
system.mem_ctrls0.rdPerTurnAround::10240-10751            1      0.00%    100.00% # Reads before turning the bus around for writes
system.mem_ctrls0.rdPerTurnAround::total        22272                       # Reads before turning the bus around for writes
system.mem_ctrls0.wrPerTurnAround::samples        22272                       # Writes before turning the bus around for reads
system.mem_ctrls0.wrPerTurnAround::mean     17.680541                       # Writes before turning the bus around for reads
system.mem_ctrls0.wrPerTurnAround::gmean    17.661719                       # Writes before turning the bus around for reads
system.mem_ctrls0.wrPerTurnAround::stdev     0.801643                       # Writes before turning the bus around for reads
system.mem_ctrls0.wrPerTurnAround::16            3718     16.69%     16.69% # Writes before turning the bus around for reads
system.mem_ctrls0.wrPerTurnAround::17             460      2.07%     18.76% # Writes before turning the bus around for reads
system.mem_ctrls0.wrPerTurnAround::18           17425     78.24%     97.00% # Writes before turning the bus around for reads
system.mem_ctrls0.wrPerTurnAround::19             598      2.68%     99.68% # Writes before turning the bus around for reads
system.mem_ctrls0.wrPerTurnAround::20              51      0.23%     99.91% # Writes before turning the bus around for reads
system.mem_ctrls0.wrPerTurnAround::21              13      0.06%     99.97% # Writes before turning the bus around for reads
system.mem_ctrls0.wrPerTurnAround::22               4      0.02%     99.99% # Writes before turning the bus around for reads
system.mem_ctrls0.wrPerTurnAround::23               1      0.00%     99.99% # Writes before turning the bus around for reads
system.mem_ctrls0.wrPerTurnAround::25               1      0.00%    100.00% # Writes before turning the bus around for reads
system.mem_ctrls0.wrPerTurnAround::32               1      0.00%    100.00% # Writes before turning the bus around for reads
system.mem_ctrls0.wrPerTurnAround::total        22272                       # Writes before turning the bus around for reads
system.mem_ctrls0.totQLat                 10887791250                       # Total ticks spent queuing
system.mem_ctrls0.totMemAccLat            28407416250                       # Total ticks spent from burst creation until serviced by the DRAM
system.mem_ctrls0.totBusLat                4671900000                       # Total ticks spent in databus transfers
system.mem_ctrls0.avgQLat                    11652.42                       # Average queueing delay per DRAM burst
system.mem_ctrls0.avgBusLat                   5000.00                       # Average bus latency per DRAM burst
system.mem_ctrls0.avgMemAccLat               30402.42                       # Average memory access latency per DRAM burst
system.mem_ctrls0.avgRdBW                       15.19                       # Average DRAM read bandwidth in MiByte/s
system.mem_ctrls0.avgWrBW                        6.40                       # Average achieved write bandwidth in MiByte/s
system.mem_ctrls0.avgRdBWSys                    15.21                       # Average system read bandwidth in MiByte/s
system.mem_ctrls0.avgWrBWSys                     6.40                       # Average system write bandwidth in MiByte/s
system.mem_ctrls0.peakBW                     12800.00                       # Theoretical peak bandwidth in MiByte/s
system.mem_ctrls0.busUtil                        0.17                       # Data bus utilization in percentage
system.mem_ctrls0.busUtilRead                    0.12                       # Data bus utilization in percentage for reads
system.mem_ctrls0.busUtilWrite                   0.05                       # Data bus utilization in percentage for writes
system.mem_ctrls0.avgRdQLen                      1.00                       # Average read queue length when enqueuing
system.mem_ctrls0.avgWrQLen                     24.57                       # Average write queue length when enqueuing
system.mem_ctrls0.readRowHits                  469489                       # Number of row buffer hits during reads
system.mem_ctrls0.writeRowHits                 102947                       # Number of row buffer hits during writes
system.mem_ctrls0.readRowHitRate                50.25                       # Row buffer hit rate for reads
system.mem_ctrls0.writeRowHitRate               26.14                       # Row buffer hit rate for writes
system.mem_ctrls0.avgGap                   2961356.18                       # Average gap between requests
system.mem_ctrls0.pageHitRate                   43.10                       # Row buffer hit rate, read and write combined
system.mem_ctrls0_0.actEnergy              3046143240                       # Energy for activate commands per rank (pJ)
system.mem_ctrls0_0.preEnergy              1662082125                       # Energy for precharge commands per rank (pJ)
system.mem_ctrls0_0.readEnergy             3906271200                       # Energy for read commands per rank (pJ)
system.mem_ctrls0_0.writeEnergy            1342079280                       # Energy for write commands per rank (pJ)
system.mem_ctrls0_0.refreshEnergy        257301354960                       # Energy for refresh commands per rank (pJ)
system.mem_ctrls0_0.actBackEnergy        425807081190                       # Energy for active background per rank (pJ)
system.mem_ctrls0_0.preBackEnergy        1990115039250                       # Energy for precharge background per rank (pJ)
system.mem_ctrls0_0.totalEnergy          2683180051245                       # Total energy per rank (pJ)
system.mem_ctrls0_0.averagePower           681.116763                       # Core power per rank (mW)
system.mem_ctrls0_0.memoryStateTime::IDLE 3306849419000                       # Time in different power states
system.mem_ctrls0_0.memoryStateTime::REF 131424540000                       # Time in different power states
system.mem_ctrls0_0.memoryStateTime::PRE_PDN            0                       # Time in different power states
system.mem_ctrls0_0.memoryStateTime::ACT 497509764500                       # Time in different power states
system.mem_ctrls0_0.memoryStateTime::ACT_PDN            0                       # Time in different power states
system.mem_ctrls0_1.actEnergy              2687580000                       # Energy for activate commands per rank (pJ)
system.mem_ctrls0_1.preEnergy              1466437500                       # Energy for precharge commands per rank (pJ)
system.mem_ctrls0_1.readEnergy             3448029000                       # Energy for read commands per rank (pJ)
system.mem_ctrls0_1.writeEnergy            1209504960                       # Energy for write commands per rank (pJ)
system.mem_ctrls0_1.refreshEnergy        257301354960                       # Energy for refresh commands per rank (pJ)
system.mem_ctrls0_1.actBackEnergy        412874780400                       # Energy for active background per rank (pJ)
system.mem_ctrls0_1.preBackEnergy        2001459162750                       # Energy for precharge background per rank (pJ)
system.mem_ctrls0_1.totalEnergy          2680446849570                       # Total energy per rank (pJ)
system.mem_ctrls0_1.averagePower           680.422949                       # Core power per rank (mW)
system.mem_ctrls0_1.memoryStateTime::IDLE 3325952387000                       # Time in different power states
system.mem_ctrls0_1.memoryStateTime::REF 131424540000                       # Time in different power states
system.mem_ctrls0_1.memoryStateTime::PRE_PDN            0                       # Time in different power states
system.mem_ctrls0_1.memoryStateTime::ACT 478409485750                       # Time in different power states
system.mem_ctrls0_1.memoryStateTime::ACT_PDN            0                       # Time in different power states
system.mem_ctrls1.bytes_read::ruby.dir_cntrl1     59624192                       # Number of bytes read from this memory
system.mem_ctrls1.bytes_read::total          59624192                       # Number of bytes read from this memory
system.mem_ctrls1.bytes_written::ruby.dir_cntrl1     25122496                       # Number of bytes written to this memory
system.mem_ctrls1.bytes_written::total       25122496                       # Number of bytes written to this memory
system.mem_ctrls1.num_reads::ruby.dir_cntrl1       931628                       # Number of read requests responded to by this memory
system.mem_ctrls1.num_reads::total             931628                       # Number of read requests responded to by this memory
system.mem_ctrls1.num_writes::ruby.dir_cntrl1       392539                       # Number of write requests responded to by this memory
system.mem_ctrls1.num_writes::total            392539                       # Number of write requests responded to by this memory
system.mem_ctrls1.bw_read::ruby.dir_cntrl1     15149241                       # Total read bandwidth from this memory (bytes/s)
system.mem_ctrls1.bw_read::total             15149241                       # Total read bandwidth from this memory (bytes/s)
system.mem_ctrls1.bw_write::ruby.dir_cntrl1      6383093                       # Write bandwidth from this memory (bytes/s)
system.mem_ctrls1.bw_write::total             6383093                       # Write bandwidth from this memory (bytes/s)
system.mem_ctrls1.bw_total::ruby.dir_cntrl1     21532334                       # Total bandwidth to/from this memory (bytes/s)
system.mem_ctrls1.bw_total::total            21532334                       # Total bandwidth to/from this memory (bytes/s)
system.mem_ctrls1.readReqs                     931628                       # Number of read requests accepted
system.mem_ctrls1.writeReqs                    392539                       # Number of write requests accepted
system.mem_ctrls1.readBursts                   931628                       # Number of DRAM read bursts, including those serviced by the write queue
system.mem_ctrls1.writeBursts                  392539                       # Number of DRAM write bursts, including those merged in the write queue
system.mem_ctrls1.bytesReadDRAM              59575936                       # Total number of bytes read from DRAM
system.mem_ctrls1.bytesReadWrQ                  48256                       # Total number of bytes read from write queue
system.mem_ctrls1.bytesWritten               25120832                       # Total number of bytes written to DRAM
system.mem_ctrls1.bytesReadSys               59624192                       # Total read bytes from the system interface side
system.mem_ctrls1.bytesWrittenSys            25122496                       # Total written bytes from the system interface side
system.mem_ctrls1.servicedByWrQ                   754                       # Number of DRAM read bursts serviced by the write queue
system.mem_ctrls1.mergedWrBursts                    0                       # Number of DRAM write bursts merged with an existing one
system.mem_ctrls1.neitherReadNorWriteReqs            0                       # Number of requests that are neither read nor write
system.mem_ctrls1.perBankRdBursts::0            62117                       # Per bank write bursts
system.mem_ctrls1.perBankRdBursts::1            59880                       # Per bank write bursts
system.mem_ctrls1.perBankRdBursts::2            64821                       # Per bank write bursts
system.mem_ctrls1.perBankRdBursts::3            65530                       # Per bank write bursts
system.mem_ctrls1.perBankRdBursts::4            67733                       # Per bank write bursts
system.mem_ctrls1.perBankRdBursts::5            61878                       # Per bank write bursts
system.mem_ctrls1.perBankRdBursts::6            55887                       # Per bank write bursts
system.mem_ctrls1.perBankRdBursts::7            55012                       # Per bank write bursts
system.mem_ctrls1.perBankRdBursts::8            53142                       # Per bank write bursts
system.mem_ctrls1.perBankRdBursts::9            53299                       # Per bank write bursts
system.mem_ctrls1.perBankRdBursts::10           52735                       # Per bank write bursts
system.mem_ctrls1.perBankRdBursts::11           53737                       # Per bank write bursts
system.mem_ctrls1.perBankRdBursts::12           52100                       # Per bank write bursts
system.mem_ctrls1.perBankRdBursts::13           51186                       # Per bank write bursts
system.mem_ctrls1.perBankRdBursts::14           62338                       # Per bank write bursts
system.mem_ctrls1.perBankRdBursts::15           59479                       # Per bank write bursts
system.mem_ctrls1.perBankWrBursts::0            25933                       # Per bank write bursts
system.mem_ctrls1.perBankWrBursts::1            24861                       # Per bank write bursts
system.mem_ctrls1.perBankWrBursts::2            26725                       # Per bank write bursts
system.mem_ctrls1.perBankWrBursts::3            27551                       # Per bank write bursts
system.mem_ctrls1.perBankWrBursts::4            27680                       # Per bank write bursts
system.mem_ctrls1.perBankWrBursts::5            25528                       # Per bank write bursts
system.mem_ctrls1.perBankWrBursts::6            23984                       # Per bank write bursts
system.mem_ctrls1.perBankWrBursts::7            23762                       # Per bank write bursts
system.mem_ctrls1.perBankWrBursts::8            22977                       # Per bank write bursts
system.mem_ctrls1.perBankWrBursts::9            22502                       # Per bank write bursts
system.mem_ctrls1.perBankWrBursts::10           22767                       # Per bank write bursts
system.mem_ctrls1.perBankWrBursts::11           23177                       # Per bank write bursts
system.mem_ctrls1.perBankWrBursts::12           22340                       # Per bank write bursts
system.mem_ctrls1.perBankWrBursts::13           21968                       # Per bank write bursts
system.mem_ctrls1.perBankWrBursts::14           26070                       # Per bank write bursts
system.mem_ctrls1.perBankWrBursts::15           24688                       # Per bank write bursts
system.mem_ctrls1.numRdRetry                        0                       # Number of times read queue was full causing retry
system.mem_ctrls1.numWrRetry                        0                       # Number of times write queue was full causing retry
system.mem_ctrls1.totGap                 3935787163000                       # Total gap between requests
system.mem_ctrls1.readPktSize::0                    0                       # Read request sizes (log2)
system.mem_ctrls1.readPktSize::1                    0                       # Read request sizes (log2)
system.mem_ctrls1.readPktSize::2                    0                       # Read request sizes (log2)
system.mem_ctrls1.readPktSize::3                    0                       # Read request sizes (log2)
system.mem_ctrls1.readPktSize::4                    0                       # Read request sizes (log2)
system.mem_ctrls1.readPktSize::5                    0                       # Read request sizes (log2)
system.mem_ctrls1.readPktSize::6               931628                       # Read request sizes (log2)
system.mem_ctrls1.writePktSize::0                   0                       # Write request sizes (log2)
system.mem_ctrls1.writePktSize::1                   0                       # Write request sizes (log2)
system.mem_ctrls1.writePktSize::2                   0                       # Write request sizes (log2)
system.mem_ctrls1.writePktSize::3                   0                       # Write request sizes (log2)
system.mem_ctrls1.writePktSize::4                   0                       # Write request sizes (log2)
system.mem_ctrls1.writePktSize::5                   0                       # Write request sizes (log2)
system.mem_ctrls1.writePktSize::6              392539                       # Write request sizes (log2)
system.mem_ctrls1.rdQLenPdf::0                 930601                       # What read queue length does an incoming req see
system.mem_ctrls1.rdQLenPdf::1                    272                       # What read queue length does an incoming req see
system.mem_ctrls1.rdQLenPdf::2                      1                       # What read queue length does an incoming req see
system.mem_ctrls1.rdQLenPdf::3                      0                       # What read queue length does an incoming req see
system.mem_ctrls1.rdQLenPdf::4                      0                       # What read queue length does an incoming req see
system.mem_ctrls1.rdQLenPdf::5                      0                       # What read queue length does an incoming req see
system.mem_ctrls1.rdQLenPdf::6                      0                       # What read queue length does an incoming req see
system.mem_ctrls1.rdQLenPdf::7                      0                       # What read queue length does an incoming req see
system.mem_ctrls1.rdQLenPdf::8                      0                       # What read queue length does an incoming req see
system.mem_ctrls1.rdQLenPdf::9                      0                       # What read queue length does an incoming req see
system.mem_ctrls1.rdQLenPdf::10                     0                       # What read queue length does an incoming req see
system.mem_ctrls1.rdQLenPdf::11                     0                       # What read queue length does an incoming req see
system.mem_ctrls1.rdQLenPdf::12                     0                       # What read queue length does an incoming req see
system.mem_ctrls1.rdQLenPdf::13                     0                       # What read queue length does an incoming req see
system.mem_ctrls1.rdQLenPdf::14                     0                       # What read queue length does an incoming req see
system.mem_ctrls1.rdQLenPdf::15                     0                       # What read queue length does an incoming req see
system.mem_ctrls1.rdQLenPdf::16                     0                       # What read queue length does an incoming req see
system.mem_ctrls1.rdQLenPdf::17                     0                       # What read queue length does an incoming req see
system.mem_ctrls1.rdQLenPdf::18                     0                       # What read queue length does an incoming req see
system.mem_ctrls1.rdQLenPdf::19                     0                       # What read queue length does an incoming req see
system.mem_ctrls1.rdQLenPdf::20                     0                       # What read queue length does an incoming req see
system.mem_ctrls1.rdQLenPdf::21                     0                       # What read queue length does an incoming req see
system.mem_ctrls1.rdQLenPdf::22                     0                       # What read queue length does an incoming req see
system.mem_ctrls1.rdQLenPdf::23                     0                       # What read queue length does an incoming req see
system.mem_ctrls1.rdQLenPdf::24                     0                       # What read queue length does an incoming req see
system.mem_ctrls1.rdQLenPdf::25                     0                       # What read queue length does an incoming req see
system.mem_ctrls1.rdQLenPdf::26                     0                       # What read queue length does an incoming req see
system.mem_ctrls1.rdQLenPdf::27                     0                       # What read queue length does an incoming req see
system.mem_ctrls1.rdQLenPdf::28                     0                       # What read queue length does an incoming req see
system.mem_ctrls1.rdQLenPdf::29                     0                       # What read queue length does an incoming req see
system.mem_ctrls1.rdQLenPdf::30                     0                       # What read queue length does an incoming req see
system.mem_ctrls1.rdQLenPdf::31                     0                       # What read queue length does an incoming req see
system.mem_ctrls1.wrQLenPdf::0                      0                       # What write queue length does an incoming req see
system.mem_ctrls1.wrQLenPdf::1                      0                       # What write queue length does an incoming req see
system.mem_ctrls1.wrQLenPdf::2                      1                       # What write queue length does an incoming req see
system.mem_ctrls1.wrQLenPdf::3                      1                       # What write queue length does an incoming req see
system.mem_ctrls1.wrQLenPdf::4                      1                       # What write queue length does an incoming req see
system.mem_ctrls1.wrQLenPdf::5                      1                       # What write queue length does an incoming req see
system.mem_ctrls1.wrQLenPdf::6                      1                       # What write queue length does an incoming req see
system.mem_ctrls1.wrQLenPdf::7                      1                       # What write queue length does an incoming req see
system.mem_ctrls1.wrQLenPdf::8                      1                       # What write queue length does an incoming req see
system.mem_ctrls1.wrQLenPdf::9                      1                       # What write queue length does an incoming req see
system.mem_ctrls1.wrQLenPdf::10                     1                       # What write queue length does an incoming req see
system.mem_ctrls1.wrQLenPdf::11                     1                       # What write queue length does an incoming req see
system.mem_ctrls1.wrQLenPdf::12                     1                       # What write queue length does an incoming req see
system.mem_ctrls1.wrQLenPdf::13                     1                       # What write queue length does an incoming req see
system.mem_ctrls1.wrQLenPdf::14                     1                       # What write queue length does an incoming req see
system.mem_ctrls1.wrQLenPdf::15                 17957                       # What write queue length does an incoming req see
system.mem_ctrls1.wrQLenPdf::16                 18488                       # What write queue length does an incoming req see
system.mem_ctrls1.wrQLenPdf::17                 21300                       # What write queue length does an incoming req see
system.mem_ctrls1.wrQLenPdf::18                 22540                       # What write queue length does an incoming req see
system.mem_ctrls1.wrQLenPdf::19                 22561                       # What write queue length does an incoming req see
system.mem_ctrls1.wrQLenPdf::20                 22366                       # What write queue length does an incoming req see
system.mem_ctrls1.wrQLenPdf::21                 22317                       # What write queue length does an incoming req see
system.mem_ctrls1.wrQLenPdf::22                 22299                       # What write queue length does an incoming req see
system.mem_ctrls1.wrQLenPdf::23                 22307                       # What write queue length does an incoming req see
system.mem_ctrls1.wrQLenPdf::24                 22306                       # What write queue length does an incoming req see
system.mem_ctrls1.wrQLenPdf::25                 22297                       # What write queue length does an incoming req see
system.mem_ctrls1.wrQLenPdf::26                 22274                       # What write queue length does an incoming req see
system.mem_ctrls1.wrQLenPdf::27                 22284                       # What write queue length does an incoming req see
system.mem_ctrls1.wrQLenPdf::28                 22291                       # What write queue length does an incoming req see
system.mem_ctrls1.wrQLenPdf::29                 22261                       # What write queue length does an incoming req see
system.mem_ctrls1.wrQLenPdf::30                 22219                       # What write queue length does an incoming req see
system.mem_ctrls1.wrQLenPdf::31                 22211                       # What write queue length does an incoming req see
system.mem_ctrls1.wrQLenPdf::32                 22208                       # What write queue length does an incoming req see
system.mem_ctrls1.wrQLenPdf::33                    29                       # What write queue length does an incoming req see
system.mem_ctrls1.wrQLenPdf::34                     7                       # What write queue length does an incoming req see
system.mem_ctrls1.wrQLenPdf::35                     1                       # What write queue length does an incoming req see
system.mem_ctrls1.wrQLenPdf::36                     1                       # What write queue length does an incoming req see
system.mem_ctrls1.wrQLenPdf::37                     1                       # What write queue length does an incoming req see
system.mem_ctrls1.wrQLenPdf::38                     1                       # What write queue length does an incoming req see
system.mem_ctrls1.wrQLenPdf::39                     0                       # What write queue length does an incoming req see
system.mem_ctrls1.wrQLenPdf::40                     0                       # What write queue length does an incoming req see
system.mem_ctrls1.wrQLenPdf::41                     0                       # What write queue length does an incoming req see
system.mem_ctrls1.wrQLenPdf::42                     0                       # What write queue length does an incoming req see
system.mem_ctrls1.wrQLenPdf::43                     0                       # What write queue length does an incoming req see
system.mem_ctrls1.wrQLenPdf::44                     0                       # What write queue length does an incoming req see
system.mem_ctrls1.wrQLenPdf::45                     0                       # What write queue length does an incoming req see
system.mem_ctrls1.wrQLenPdf::46                     0                       # What write queue length does an incoming req see
system.mem_ctrls1.wrQLenPdf::47                     0                       # What write queue length does an incoming req see
system.mem_ctrls1.wrQLenPdf::48                     0                       # What write queue length does an incoming req see
system.mem_ctrls1.wrQLenPdf::49                     0                       # What write queue length does an incoming req see
system.mem_ctrls1.wrQLenPdf::50                     0                       # What write queue length does an incoming req see
system.mem_ctrls1.wrQLenPdf::51                     0                       # What write queue length does an incoming req see
system.mem_ctrls1.wrQLenPdf::52                     0                       # What write queue length does an incoming req see
system.mem_ctrls1.wrQLenPdf::53                     0                       # What write queue length does an incoming req see
system.mem_ctrls1.wrQLenPdf::54                     0                       # What write queue length does an incoming req see
system.mem_ctrls1.wrQLenPdf::55                     0                       # What write queue length does an incoming req see
system.mem_ctrls1.wrQLenPdf::56                     0                       # What write queue length does an incoming req see
system.mem_ctrls1.wrQLenPdf::57                     0                       # What write queue length does an incoming req see
system.mem_ctrls1.wrQLenPdf::58                     0                       # What write queue length does an incoming req see
system.mem_ctrls1.wrQLenPdf::59                     0                       # What write queue length does an incoming req see
system.mem_ctrls1.wrQLenPdf::60                     0                       # What write queue length does an incoming req see
system.mem_ctrls1.wrQLenPdf::61                     0                       # What write queue length does an incoming req see
system.mem_ctrls1.wrQLenPdf::62                     0                       # What write queue length does an incoming req see
system.mem_ctrls1.wrQLenPdf::63                     0                       # What write queue length does an incoming req see
system.mem_ctrls1.bytesPerActivate::samples       752348                       # Bytes accessed per row activation
system.mem_ctrls1.bytesPerActivate::mean   112.576669                       # Bytes accessed per row activation
system.mem_ctrls1.bytesPerActivate::gmean    88.497986                       # Bytes accessed per row activation
system.mem_ctrls1.bytesPerActivate::stdev   129.369878                       # Bytes accessed per row activation
system.mem_ctrls1.bytesPerActivate::0-127       510466     67.85%     67.85% # Bytes accessed per row activation
system.mem_ctrls1.bytesPerActivate::128-255       190036     25.26%     93.11% # Bytes accessed per row activation
system.mem_ctrls1.bytesPerActivate::256-383        22712      3.02%     96.13% # Bytes accessed per row activation
system.mem_ctrls1.bytesPerActivate::384-511         6316      0.84%     96.97% # Bytes accessed per row activation
system.mem_ctrls1.bytesPerActivate::512-639         8532      1.13%     98.10% # Bytes accessed per row activation
system.mem_ctrls1.bytesPerActivate::640-767         5036      0.67%     98.77% # Bytes accessed per row activation
system.mem_ctrls1.bytesPerActivate::768-895         1863      0.25%     99.02% # Bytes accessed per row activation
system.mem_ctrls1.bytesPerActivate::896-1023          870      0.12%     99.13% # Bytes accessed per row activation
system.mem_ctrls1.bytesPerActivate::1024-1151         6517      0.87%    100.00% # Bytes accessed per row activation
system.mem_ctrls1.bytesPerActivate::total       752348                       # Bytes accessed per row activation
system.mem_ctrls1.rdPerTurnAround::samples        22207                       # Reads before turning the bus around for writes
system.mem_ctrls1.rdPerTurnAround::mean     42.296753                       # Reads before turning the bus around for writes
system.mem_ctrls1.rdPerTurnAround::stdev    76.258317                       # Reads before turning the bus around for writes
system.mem_ctrls1.rdPerTurnAround::0-511        22202     99.98%     99.98% # Reads before turning the bus around for writes
system.mem_ctrls1.rdPerTurnAround::512-1023            3      0.01%     99.99% # Reads before turning the bus around for writes
system.mem_ctrls1.rdPerTurnAround::1024-1535            1      0.00%    100.00% # Reads before turning the bus around for writes
system.mem_ctrls1.rdPerTurnAround::10240-10751            1      0.00%    100.00% # Reads before turning the bus around for writes
system.mem_ctrls1.rdPerTurnAround::total        22207                       # Reads before turning the bus around for writes
system.mem_ctrls1.wrPerTurnAround::samples        22207                       # Writes before turning the bus around for reads
system.mem_ctrls1.wrPerTurnAround::mean     17.675193                       # Writes before turning the bus around for reads
system.mem_ctrls1.wrPerTurnAround::gmean    17.656176                       # Writes before turning the bus around for reads
system.mem_ctrls1.wrPerTurnAround::stdev     0.803996                       # Writes before turning the bus around for reads
system.mem_ctrls1.wrPerTurnAround::16            3782     17.03%     17.03% # Writes before turning the bus around for reads
system.mem_ctrls1.wrPerTurnAround::17             441      1.99%     19.02% # Writes before turning the bus around for reads
system.mem_ctrls1.wrPerTurnAround::18           17307     77.93%     96.95% # Writes before turning the bus around for reads
system.mem_ctrls1.wrPerTurnAround::19             596      2.68%     99.64% # Writes before turning the bus around for reads
system.mem_ctrls1.wrPerTurnAround::20              61      0.27%     99.91% # Writes before turning the bus around for reads
system.mem_ctrls1.wrPerTurnAround::21              11      0.05%     99.96% # Writes before turning the bus around for reads
system.mem_ctrls1.wrPerTurnAround::22               4      0.02%     99.98% # Writes before turning the bus around for reads
system.mem_ctrls1.wrPerTurnAround::23               5      0.02%    100.00% # Writes before turning the bus around for reads
system.mem_ctrls1.wrPerTurnAround::total        22207                       # Writes before turning the bus around for reads
system.mem_ctrls1.totQLat                 10810685250                       # Total ticks spent queuing
system.mem_ctrls1.totMemAccLat            28264572750                       # Total ticks spent from burst creation until serviced by the DRAM
system.mem_ctrls1.totBusLat                4654370000                       # Total ticks spent in databus transfers
system.mem_ctrls1.avgQLat                    11613.48                       # Average queueing delay per DRAM burst
system.mem_ctrls1.avgBusLat                   5000.00                       # Average bus latency per DRAM burst
system.mem_ctrls1.avgMemAccLat               30363.48                       # Average memory access latency per DRAM burst
system.mem_ctrls1.avgRdBW                       15.14                       # Average DRAM read bandwidth in MiByte/s
system.mem_ctrls1.avgWrBW                        6.38                       # Average achieved write bandwidth in MiByte/s
system.mem_ctrls1.avgRdBWSys                    15.15                       # Average system read bandwidth in MiByte/s
system.mem_ctrls1.avgWrBWSys                     6.38                       # Average system write bandwidth in MiByte/s
system.mem_ctrls1.peakBW                     12800.00                       # Theoretical peak bandwidth in MiByte/s
system.mem_ctrls1.busUtil                        0.17                       # Data bus utilization in percentage
system.mem_ctrls1.busUtilRead                    0.12                       # Data bus utilization in percentage for reads
system.mem_ctrls1.busUtilWrite                   0.05                       # Data bus utilization in percentage for writes
system.mem_ctrls1.avgRdQLen                      1.00                       # Average read queue length when enqueuing
system.mem_ctrls1.avgWrQLen                     24.56                       # Average write queue length when enqueuing
system.mem_ctrls1.readRowHits                  468134                       # Number of row buffer hits during reads
system.mem_ctrls1.writeRowHits                 102905                       # Number of row buffer hits during writes
system.mem_ctrls1.readRowHitRate                50.29                       # Row buffer hit rate for reads
system.mem_ctrls1.writeRowHitRate               26.22                       # Row buffer hit rate for writes
system.mem_ctrls1.avgGap                   2972274.01                       # Average gap between requests
system.mem_ctrls1.pageHitRate                   43.15                       # Row buffer hit rate, read and write combined
system.mem_ctrls1_0.actEnergy              3022367040                       # Energy for activate commands per rank (pJ)
system.mem_ctrls1_0.preEnergy              1649109000                       # Energy for precharge commands per rank (pJ)
system.mem_ctrls1_0.readEnergy             3879353400                       # Energy for read commands per rank (pJ)
system.mem_ctrls1_0.writeEnergy            1335035520                       # Energy for write commands per rank (pJ)
system.mem_ctrls1_0.refreshEnergy        257301354960                       # Energy for refresh commands per rank (pJ)
system.mem_ctrls1_0.actBackEnergy        425018422350                       # Energy for active background per rank (pJ)
system.mem_ctrls1_0.preBackEnergy        1990806845250                       # Energy for precharge background per rank (pJ)
system.mem_ctrls1_0.totalEnergy          2683012487520                       # Total energy per rank (pJ)
system.mem_ctrls1_0.averagePower           681.074228                       # Core power per rank (mW)
system.mem_ctrls1_0.memoryStateTime::IDLE 3308028925750                       # Time in different power states
system.mem_ctrls1_0.memoryStateTime::REF 131424540000                       # Time in different power states
system.mem_ctrls1_0.memoryStateTime::PRE_PDN            0                       # Time in different power states
system.mem_ctrls1_0.memoryStateTime::ACT 496335136250                       # Time in different power states
system.mem_ctrls1_0.memoryStateTime::ACT_PDN            0                       # Time in different power states
system.mem_ctrls1_1.actEnergy              2685410280                       # Energy for activate commands per rank (pJ)
system.mem_ctrls1_1.preEnergy              1465253625                       # Energy for precharge commands per rank (pJ)
system.mem_ctrls1_1.readEnergy             3447397200                       # Energy for read commands per rank (pJ)
system.mem_ctrls1_1.writeEnergy            1208448720                       # Energy for write commands per rank (pJ)
system.mem_ctrls1_1.refreshEnergy        257301354960                       # Energy for refresh commands per rank (pJ)
system.mem_ctrls1_1.actBackEnergy        413726209065                       # Energy for active background per rank (pJ)
system.mem_ctrls1_1.preBackEnergy        2000712295500                       # Energy for precharge background per rank (pJ)
system.mem_ctrls1_1.totalEnergy          2680546369350                       # Total energy per rank (pJ)
system.mem_ctrls1_1.averagePower           680.448211                       # Core power per rank (mW)
system.mem_ctrls1_1.memoryStateTime::IDLE 3324674448500                       # Time in different power states
system.mem_ctrls1_1.memoryStateTime::REF 131424540000                       # Time in different power states
system.mem_ctrls1_1.memoryStateTime::PRE_PDN            0                       # Time in different power states
system.mem_ctrls1_1.memoryStateTime::ACT 479686875250                       # Time in different power states
system.mem_ctrls1_1.memoryStateTime::ACT_PDN            0                       # Time in different power states
system.cpu_voltage_domain.voltage                   1                       # Voltage in Volts
system.cpu_clk_domain.clock                       500                       # Clock period in ticks
system.cpu0.apic_clk_domain.clock                8000                       # Clock period in ticks
system.cpu0.numCycles                      7869618963                       # number of cpu cycles simulated
system.cpu0.numWorkItemsStarted                     0                       # number of work items this cpu started
system.cpu0.numWorkItemsCompleted                   0                       # number of work items this cpu completed
system.cpu0.kern.inst.arm                           0                       # number of arm instructions executed
system.cpu0.kern.inst.quiesce                       0                       # number of quiesce instructions executed
system.cpu0.committedInsts                    4135262                       # Number of instructions committed
system.cpu0.committedOps                      8711329                       # Number of ops (including micro ops) committed
system.cpu0.num_int_alu_accesses              8537868                       # Number of integer alu accesses
system.cpu0.num_fp_alu_accesses                  1814                       # Number of float alu accesses
system.cpu0.num_func_calls                     240116                       # number of times a function call or return occured
system.cpu0.num_conditional_control_insts       621229                       # number of instructions that are conditional controls
system.cpu0.num_int_insts                     8537868                       # number of integer instructions
system.cpu0.num_fp_insts                         1814                       # number of float instructions
system.cpu0.num_int_register_reads           17296659                       # number of times the integer registers were read
system.cpu0.num_int_register_writes           7036588                       # number of times the integer registers were written
system.cpu0.num_fp_register_reads                3048                       # number of times the floating registers were read
system.cpu0.num_fp_register_writes               1440                       # number of times the floating registers were written
system.cpu0.num_cc_register_reads             4945260                       # number of times the CC registers were read
system.cpu0.num_cc_register_writes            2718574                       # number of times the CC registers were written
system.cpu0.num_mem_refs                      2024995                       # number of memory refs
system.cpu0.num_load_insts                    1256483                       # Number of load instructions
system.cpu0.num_store_insts                    768512                       # Number of store instructions
system.cpu0.num_idle_cycles              7851252730.434489                       # Number of idle cycles
system.cpu0.num_busy_cycles              18366232.565511                       # Number of busy cycles
system.cpu0.not_idle_fraction                0.002334                       # Percentage of non-idle cycles
system.cpu0.idle_fraction                    0.997666                       # Percentage of idle cycles
system.cpu0.Branches                           933151                       # Number of branches fetched
system.cpu0.op_class::No_OpClass               128533      1.48%      1.48% # Class of executed instruction
system.cpu0.op_class::IntAlu                  6499845     74.61%     76.09% # Class of executed instruction
system.cpu0.op_class::IntMult                   14315      0.16%     76.25% # Class of executed instruction
system.cpu0.op_class::IntDiv                    42363      0.49%     76.74% # Class of executed instruction
system.cpu0.op_class::FloatAdd                   1368      0.02%     76.75% # Class of executed instruction
system.cpu0.op_class::FloatCmp                      0      0.00%     76.75% # Class of executed instruction
system.cpu0.op_class::FloatCvt                      0      0.00%     76.75% # Class of executed instruction
system.cpu0.op_class::FloatMult                     0      0.00%     76.75% # Class of executed instruction
system.cpu0.op_class::FloatDiv                      0      0.00%     76.75% # Class of executed instruction
system.cpu0.op_class::FloatSqrt                     0      0.00%     76.75% # Class of executed instruction
system.cpu0.op_class::SimdAdd                       0      0.00%     76.75% # Class of executed instruction
system.cpu0.op_class::SimdAddAcc                    0      0.00%     76.75% # Class of executed instruction
system.cpu0.op_class::SimdAlu                       0      0.00%     76.75% # Class of executed instruction
system.cpu0.op_class::SimdCmp                       0      0.00%     76.75% # Class of executed instruction
system.cpu0.op_class::SimdCvt                       0      0.00%     76.75% # Class of executed instruction
system.cpu0.op_class::SimdMisc                      0      0.00%     76.75% # Class of executed instruction
system.cpu0.op_class::SimdMult                      0      0.00%     76.75% # Class of executed instruction
system.cpu0.op_class::SimdMultAcc                   0      0.00%     76.75% # Class of executed instruction
system.cpu0.op_class::SimdShift                     0      0.00%     76.75% # Class of executed instruction
system.cpu0.op_class::SimdShiftAcc                  0      0.00%     76.75% # Class of executed instruction
system.cpu0.op_class::SimdSqrt                      0      0.00%     76.75% # Class of executed instruction
system.cpu0.op_class::SimdFloatAdd                  0      0.00%     76.75% # Class of executed instruction
system.cpu0.op_class::SimdFloatAlu                  0      0.00%     76.75% # Class of executed instruction
system.cpu0.op_class::SimdFloatCmp                  0      0.00%     76.75% # Class of executed instruction
system.cpu0.op_class::SimdFloatCvt                  0      0.00%     76.75% # Class of executed instruction
system.cpu0.op_class::SimdFloatDiv                  0      0.00%     76.75% # Class of executed instruction
system.cpu0.op_class::SimdFloatMisc                 0      0.00%     76.75% # Class of executed instruction
system.cpu0.op_class::SimdFloatMult                 0      0.00%     76.75% # Class of executed instruction
system.cpu0.op_class::SimdFloatMultAcc              0      0.00%     76.75% # Class of executed instruction
system.cpu0.op_class::SimdFloatSqrt                 0      0.00%     76.75% # Class of executed instruction
system.cpu0.op_class::MemRead                 1256483     14.42%     91.18% # Class of executed instruction
system.cpu0.op_class::MemWrite                 768512      8.82%    100.00% # Class of executed instruction
system.cpu0.op_class::IprAccess                     0      0.00%    100.00% # Class of executed instruction
system.cpu0.op_class::InstPrefetch                  0      0.00%    100.00% # Class of executed instruction
system.cpu0.op_class::total                   8711419                       # Class of executed instruction
system.cpu1.apic_clk_domain.clock                8000                       # Clock period in ticks
system.cpu1.numCycles                      7874902278                       # number of cpu cycles simulated
system.cpu1.numWorkItemsStarted                     0                       # number of work items this cpu started
system.cpu1.numWorkItemsCompleted                   0                       # number of work items this cpu completed
system.cpu1.kern.inst.arm                           0                       # number of arm instructions executed
system.cpu1.kern.inst.quiesce                       0                       # number of quiesce instructions executed
system.cpu1.committedInsts                    2791402                       # Number of instructions committed
system.cpu1.committedOps                      5997954                       # Number of ops (including micro ops) committed
system.cpu1.num_int_alu_accesses              5868335                       # Number of integer alu accesses
system.cpu1.num_fp_alu_accesses                   154                       # Number of float alu accesses
system.cpu1.num_func_calls                     166457                       # number of times a function call or return occured
system.cpu1.num_conditional_control_insts       418065                       # number of instructions that are conditional controls
system.cpu1.num_int_insts                     5868335                       # number of integer instructions
system.cpu1.num_fp_insts                          154                       # number of float instructions
system.cpu1.num_int_register_reads           11936974                       # number of times the integer registers were read
system.cpu1.num_int_register_writes           4863763                       # number of times the integer registers were written
system.cpu1.num_fp_register_reads                 258                       # number of times the floating registers were read
system.cpu1.num_fp_register_writes                126                       # number of times the floating registers were written
system.cpu1.num_cc_register_reads             3325065                       # number of times the CC registers were read
system.cpu1.num_cc_register_writes            1768392                       # number of times the CC registers were written
system.cpu1.num_mem_refs                      1441492                       # number of memory refs
system.cpu1.num_load_insts                     896708                       # Number of load instructions
system.cpu1.num_store_insts                    544784                       # Number of store instructions
system.cpu1.num_idle_cycles              7862800618.454918                       # Number of idle cycles
system.cpu1.num_busy_cycles              12101659.545082                       # Number of busy cycles
system.cpu1.not_idle_fraction                0.001537                       # Percentage of non-idle cycles
system.cpu1.idle_fraction                    0.998463                       # Percentage of idle cycles
system.cpu1.Branches                           638257                       # Number of branches fetched
system.cpu1.op_class::No_OpClass               108045      1.80%      1.80% # Class of executed instruction
system.cpu1.op_class::IntAlu                  4395345     73.28%     75.08% # Class of executed instruction
system.cpu1.op_class::IntMult                   15113      0.25%     75.33% # Class of executed instruction
system.cpu1.op_class::IntDiv                    37863      0.63%     75.97% # Class of executed instruction
system.cpu1.op_class::FloatAdd                    120      0.00%     75.97% # Class of executed instruction
system.cpu1.op_class::FloatCmp                      0      0.00%     75.97% # Class of executed instruction
system.cpu1.op_class::FloatCvt                      0      0.00%     75.97% # Class of executed instruction
system.cpu1.op_class::FloatMult                     0      0.00%     75.97% # Class of executed instruction
system.cpu1.op_class::FloatDiv                      0      0.00%     75.97% # Class of executed instruction
system.cpu1.op_class::FloatSqrt                     0      0.00%     75.97% # Class of executed instruction
system.cpu1.op_class::SimdAdd                       0      0.00%     75.97% # Class of executed instruction
system.cpu1.op_class::SimdAddAcc                    0      0.00%     75.97% # Class of executed instruction
system.cpu1.op_class::SimdAlu                       0      0.00%     75.97% # Class of executed instruction
system.cpu1.op_class::SimdCmp                       0      0.00%     75.97% # Class of executed instruction
system.cpu1.op_class::SimdCvt                       0      0.00%     75.97% # Class of executed instruction
system.cpu1.op_class::SimdMisc                      0      0.00%     75.97% # Class of executed instruction
system.cpu1.op_class::SimdMult                      0      0.00%     75.97% # Class of executed instruction
system.cpu1.op_class::SimdMultAcc                   0      0.00%     75.97% # Class of executed instruction
system.cpu1.op_class::SimdShift                     0      0.00%     75.97% # Class of executed instruction
system.cpu1.op_class::SimdShiftAcc                  0      0.00%     75.97% # Class of executed instruction
system.cpu1.op_class::SimdSqrt                      0      0.00%     75.97% # Class of executed instruction
system.cpu1.op_class::SimdFloatAdd                  0      0.00%     75.97% # Class of executed instruction
system.cpu1.op_class::SimdFloatAlu                  0      0.00%     75.97% # Class of executed instruction
system.cpu1.op_class::SimdFloatCmp                  0      0.00%     75.97% # Class of executed instruction
system.cpu1.op_class::SimdFloatCvt                  0      0.00%     75.97% # Class of executed instruction
system.cpu1.op_class::SimdFloatDiv                  0      0.00%     75.97% # Class of executed instruction
system.cpu1.op_class::SimdFloatMisc                 0      0.00%     75.97% # Class of executed instruction
system.cpu1.op_class::SimdFloatMult                 0      0.00%     75.97% # Class of executed instruction
system.cpu1.op_class::SimdFloatMultAcc              0      0.00%     75.97% # Class of executed instruction
system.cpu1.op_class::SimdFloatSqrt                 0      0.00%     75.97% # Class of executed instruction
system.cpu1.op_class::MemRead                  896708     14.95%     90.92% # Class of executed instruction
system.cpu1.op_class::MemWrite                 544784      9.08%    100.00% # Class of executed instruction
system.cpu1.op_class::IprAccess                     0      0.00%    100.00% # Class of executed instruction
system.cpu1.op_class::InstPrefetch                  0      0.00%    100.00% # Class of executed instruction
system.cpu1.op_class::total                   5997978                       # Class of executed instruction
system.cpu2.apic_clk_domain.clock                8000                       # Clock period in ticks
system.cpu2.numCycles                      7873482078                       # number of cpu cycles simulated
system.cpu2.numWorkItemsStarted                     0                       # number of work items this cpu started
system.cpu2.numWorkItemsCompleted                   0                       # number of work items this cpu completed
system.cpu2.kern.inst.arm                           0                       # number of arm instructions executed
system.cpu2.kern.inst.quiesce                       0                       # number of quiesce instructions executed
system.cpu2.committedInsts                 2239439456                       # Number of instructions committed
system.cpu2.committedOps                   3131844561                       # Number of ops (including micro ops) committed
system.cpu2.num_int_alu_accesses           1364890194                       # Number of integer alu accesses
system.cpu2.num_fp_alu_accesses            2127680264                       # Number of float alu accesses
system.cpu2.num_func_calls                    4833041                       # number of times a function call or return occured
system.cpu2.num_conditional_control_insts    125338329                       # number of instructions that are conditional controls
system.cpu2.num_int_insts                  1364890194                       # number of integer instructions
system.cpu2.num_fp_insts                   2127680264                       # number of float instructions
system.cpu2.num_int_register_reads         2745287589                       # number of times the integer registers were read
system.cpu2.num_int_register_writes         828389019                       # number of times the integer registers were written
system.cpu2.num_fp_register_reads          4601234004                       # number of times the floating registers were read
system.cpu2.num_fp_register_writes         2077617833                       # number of times the floating registers were written
system.cpu2.num_cc_register_reads           735869510                       # number of times the CC registers were read
system.cpu2.num_cc_register_writes          430120102                       # number of times the CC registers were written
system.cpu2.num_mem_refs                    408304705                       # number of memory refs
system.cpu2.num_load_insts                  353593981                       # Number of load instructions
system.cpu2.num_store_insts                  54710724                       # Number of store instructions
system.cpu2.num_idle_cycles              4871050.999565                       # Number of idle cycles
system.cpu2.num_busy_cycles              7868611027.000435                       # Number of busy cycles
system.cpu2.not_idle_fraction                0.999381                       # Percentage of non-idle cycles
[...]
system.ruby.L1Cache_Controller.O.Load::total         9303                      
system.ruby.L1Cache_Controller.O.Store   |          22     13.66%     13.66% |          67     41.61%     55.28% |          11      6.83%     62.11% |          61     37.89%    100.00%
system.ruby.L1Cache_Controller.O.Store::total          161                      
system.ruby.L1Cache_Controller.O.L1_Replacement |         123     19.90%     19.90% |         239     38.67%     58.58% |         132     21.36%     79.94% |         124     20.06%    100.00%
system.ruby.L1Cache_Controller.O.L1_Replacement::total          618                      
system.ruby.L1Cache_Controller.O.Fwd_GETX |        3996     20.91%     20.91% |        8658     45.30%     66.20% |         142      0.74%     66.95% |        6318     33.05%    100.00%
system.ruby.L1Cache_Controller.O.Fwd_GETX::total        19114                      
system.ruby.L1Cache_Controller.O.Fwd_GETS |        2033     10.45%     10.45% |        9989     51.35%     61.80% |         198      1.02%     62.82% |        7233     37.18%    100.00%
system.ruby.L1Cache_Controller.O.Fwd_GETS::total        19453                      
system.ruby.L1Cache_Controller.M.Load    |       88242      0.52%      0.52% |       67637      0.40%      0.92% |    16757982     98.79%     99.71% |       49247      0.29%    100.00%
system.ruby.L1Cache_Controller.M.Load::total     16963108                      
system.ruby.L1Cache_Controller.M.Store   |       11845      8.99%      8.99% |        1969      1.49%     10.48% |      116105     88.11%     98.60% |        1850      1.40%    100.00%
system.ruby.L1Cache_Controller.M.Store::total       131769                      
system.ruby.L1Cache_Controller.M.L1_Replacement |        6200      0.95%      0.95% |        1902      0.29%      1.25% |      638148     98.15%     99.40% |        3905      0.60%    100.00%
system.ruby.L1Cache_Controller.M.L1_Replacement::total       650155                      
system.ruby.L1Cache_Controller.M.Fwd_GETX |         411     36.28%     36.28% |         122     10.77%     47.04% |          80      7.06%     54.10% |         520     45.90%    100.00%
system.ruby.L1Cache_Controller.M.Fwd_GETX::total         1133                      
system.ruby.L1Cache_Controller.M.Fwd_GETS |        4141     20.93%     20.93% |        8976     45.37%     66.30% |         254      1.28%     67.58% |        6414     32.42%    100.00%
system.ruby.L1Cache_Controller.M.Fwd_GETS::total        19785                      
system.ruby.L1Cache_Controller.M_W.Load  |       19476      3.46%      3.46% |        8603      1.53%      4.99% |      524668     93.22%     98.21% |       10099      1.79%    100.00%
system.ruby.L1Cache_Controller.M_W.Load::total       562846                      
system.ruby.L1Cache_Controller.M_W.Store |        1283      1.76%      1.76% |         487      0.67%      2.43% |       69577     95.66%     98.09% |        1389      1.91%    100.00%
system.ruby.L1Cache_Controller.M_W.Store::total        72736                      
system.ruby.L1Cache_Controller.M_W.L1_Replacement |           3      3.06%      3.06% |          13     13.27%     16.33% |          82     83.67%    100.00% |           0      0.00%    100.00%
system.ruby.L1Cache_Controller.M_W.L1_Replacement::total           98                      
system.ruby.L1Cache_Controller.M_W.Fwd_GETX |           7     16.28%     16.28% |          33     76.74%     93.02% |           3      6.98%    100.00% |           0      0.00%    100.00%
system.ruby.L1Cache_Controller.M_W.Fwd_GETX::total           43                      
system.ruby.L1Cache_Controller.M_W.Fwd_GETS |          26      8.25%      8.25% |         171     54.29%     62.54% |          14      4.44%     66.98% |         104     33.02%    100.00%
system.ruby.L1Cache_Controller.M_W.Fwd_GETS::total          315                      
system.ruby.L1Cache_Controller.M_W.Use_Timeout |       22581      2.81%      2.81% |       13055      1.63%      4.44% |      754568     93.98%     98.42% |       12687      1.58%    100.00%
system.ruby.L1Cache_Controller.M_W.Use_Timeout::total       802891                      
system.ruby.L1Cache_Controller.MM.Load   |     1302272      0.69%      0.69% |      643623      0.34%      1.02% |   187225910     98.51%     99.53% |      890802      0.47%    100.00%
system.ruby.L1Cache_Controller.MM.Load::total    190062607                      
system.ruby.L1Cache_Controller.MM.Store  |     1253726      2.26%      2.26% |      686599      1.24%      3.49% |    52667577     94.80%     98.30% |      946475      1.70%    100.00%
system.ruby.L1Cache_Controller.MM.Store::total     55554377                      
system.ruby.L1Cache_Controller.MM.L1_Replacement |       31690      2.58%      2.58% |        8714      0.71%      3.29% |     1171561     95.33%     98.61% |       17023      1.39%    100.00%
system.ruby.L1Cache_Controller.MM.L1_Replacement::total      1228988                      
system.ruby.L1Cache_Controller.MM.Fwd_GETX |        1461     34.03%     34.03% |         920     21.43%     55.46% |         857     19.96%     75.43% |        1055     24.57%    100.00%
system.ruby.L1Cache_Controller.MM.Fwd_GETX::total         4293                      
system.ruby.L1Cache_Controller.MM.Fwd_GETS |        8563     47.35%     47.35% |        3020     16.70%     64.04% |        3109     17.19%     81.23% |        3394     18.77%    100.00%
system.ruby.L1Cache_Controller.MM.Fwd_GETS::total        18086                      
system.ruby.L1Cache_Controller.MM.Fwd_DMA |           2      9.52%      9.52% |           0      0.00%      9.52% |          19     90.48%    100.00% |           0      0.00%    100.00%
system.ruby.L1Cache_Controller.MM.Fwd_DMA::total           21                      
system.ruby.L1Cache_Controller.MM_W.Load |        4613      2.25%      2.25% |         894      0.44%      2.68% |      197915     96.48%     99.16% |        1716      0.84%    100.00%
system.ruby.L1Cache_Controller.MM_W.Load::total       205138                      
system.ruby.L1Cache_Controller.MM_W.Store |       90674      4.57%      4.57% |       34506      1.74%      6.30% |     1788067     90.05%     96.35% |       72461      3.65%    100.00%
system.ruby.L1Cache_Controller.MM_W.Store::total      1985708                      
system.ruby.L1Cache_Controller.MM_W.L1_Replacement |           0      0.00%      0.00% |           0      0.00%      0.00% |          38    100.00%    100.00% |           0      0.00%    100.00%
system.ruby.L1Cache_Controller.MM_W.L1_Replacement::total           38                      
system.ruby.L1Cache_Controller.MM_W.Fwd_GETX |           6     23.08%     23.08% |           9     34.62%     57.69% |           3     11.54%     69.23% |           8     30.77%    100.00%
system.ruby.L1Cache_Controller.MM_W.Fwd_GETX::total           26                      
system.ruby.L1Cache_Controller.MM_W.Fwd_GETS |          37      2.06%      2.06% |         652     36.26%     38.32% |         503     27.98%     66.30% |         606     33.70%    100.00%
system.ruby.L1Cache_Controller.MM_W.Fwd_GETS::total         1798                      
system.ruby.L1Cache_Controller.MM_W.Use_Timeout |       29900      2.67%      2.67% |       10867      0.97%      3.64% |     1059476     94.61%     98.25% |       19601      1.75%    100.00%
system.ruby.L1Cache_Controller.MM_W.Use_Timeout::total      1119844                      
system.ruby.L1Cache_Controller.IM.Ack    |        9452     44.92%     44.92% |        3397     16.14%     61.06% |        3675     17.46%     78.52% |        4520     21.48%    100.00%
system.ruby.L1Cache_Controller.IM.Ack::total        21044                      
system.ruby.L1Cache_Controller.IM.Exclusive_Data |       22265      3.68%      3.68% |        8370      1.38%      5.06% |      559701     92.52%     97.58% |       14629      2.42%    100.00%
system.ruby.L1Cache_Controller.IM.Exclusive_Data::total       604965                      
system.ruby.L1Cache_Controller.SM.Inv    |           0      0.00%      0.00% |           1    100.00%    100.00% |           0      0.00%    100.00% |           0      0.00%    100.00%
system.ruby.L1Cache_Controller.SM.Inv::total            1                      
system.ruby.L1Cache_Controller.SM.Ack    |        9686     56.52%     56.52% |        1397      8.15%     64.67% |        3134     18.29%     82.96% |        2920     17.04%    100.00%
system.ruby.L1Cache_Controller.SM.Ack::total        17137                      
system.ruby.L1Cache_Controller.SM.Exclusive_Data |        6330      1.43%      1.43% |        1943      0.44%      1.87% |      430187     97.33%     99.20% |        3522      0.80%    100.00%
system.ruby.L1Cache_Controller.SM.Exclusive_Data::total       441982                      
system.ruby.L1Cache_Controller.OM.Own_GETX |          22     13.66%     13.66% |          67     41.61%     55.28% |          11      6.83%     62.11% |          61     37.89%    100.00%
system.ruby.L1Cache_Controller.OM.Own_GETX::total          161                      
system.ruby.L1Cache_Controller.OM.Ack    |         676     34.53%     34.53% |         218     11.13%     45.66% |         691     35.29%     80.95% |         373     19.05%    100.00%
system.ruby.L1Cache_Controller.OM.Ack::total         1958                      
system.ruby.L1Cache_Controller.OM.All_acks |       28617      2.73%      2.73% |       10380      0.99%      3.72% |      989899     94.54%     98.26% |       18212      1.74%    100.00%
system.ruby.L1Cache_Controller.OM.All_acks::total      1047108                      
system.ruby.L1Cache_Controller.IS.Data   |      104030      3.66%      3.66% |       60060      2.11%      5.77% |     2608933     91.73%     97.50% |       71218      2.50%    100.00%
system.ruby.L1Cache_Controller.IS.Data::total      2844241                      
system.ruby.L1Cache_Controller.IS.Exclusive_Data |       23865      2.73%      2.73% |       13542      1.55%      4.27% |      824145     94.12%     98.39% |       14076      1.61%    100.00%
system.ruby.L1Cache_Controller.IS.Exclusive_Data::total       875628                      
system.ruby.L1Cache_Controller.SI.Load   |           6      5.13%      5.13% |           0      0.00%      5.13% |         110     94.02%     99.15% |           1      0.85%    100.00%
system.ruby.L1Cache_Controller.SI.Load::total          117                      
system.ruby.L1Cache_Controller.SI.Ifetch |           0      0.00%      0.00% |           0      0.00%      0.00% |           5     83.33%     83.33% |           1     16.67%    100.00%
system.ruby.L1Cache_Controller.SI.Ifetch::total            6                      
system.ruby.L1Cache_Controller.SI.Writeback_Ack |       82688      5.06%      5.06% |       51605      3.16%      8.22% |     1443875     88.41%     96.63% |       55047      3.37%    100.00%
system.ruby.L1Cache_Controller.SI.Writeback_Ack::total      1633215                      
system.ruby.L1Cache_Controller.SI.Writeback_Ack_Data |       11916      1.58%      1.58% |        3328      0.44%      2.02% |      731881     97.17%     99.20% |        6043      0.80%    100.00%
system.ruby.L1Cache_Controller.SI.Writeback_Ack_Data::total       753168                      
system.ruby.L1Cache_Controller.OI.Writeback_Ack_Data |         123     19.90%     19.90% |         239     38.67%     58.58% |         132     21.36%     79.94% |         124     20.06%    100.00%
system.ruby.L1Cache_Controller.OI.Writeback_Ack_Data::total          618                      
system.ruby.L1Cache_Controller.MI.Load   |           4      8.70%      8.70% |          10     21.74%     30.43% |          32     69.57%    100.00% |           0      0.00%    100.00%
system.ruby.L1Cache_Controller.MI.Load::total           46                      
system.ruby.L1Cache_Controller.MI.Writeback_Ack_Data |       37889      2.02%      2.02% |       10616      0.56%      2.58% |     1809709     96.31%     98.89% |       20928      1.11%    100.00%
system.ruby.L1Cache_Controller.MI.Writeback_Ack_Data::total      1879142                      
system.ruby.L2Cache_Controller.L1_GETS        3720382      0.00%      0.00%
system.ruby.L2Cache_Controller.L1_GETX        1047116      0.00%      0.00%
system.ruby.L2Cache_Controller.L1_PUTO            618      0.00%      0.00%
system.ruby.L2Cache_Controller.L1_PUTX        1879143      0.00%      0.00%
system.ruby.L2Cache_Controller.L1_PUTS_only      2185291      0.00%      0.00%
system.ruby.L2Cache_Controller.L1_PUTS         201097      0.00%      0.00%
system.ruby.L2Cache_Controller.Fwd_GETX            86      0.00%      0.00%
system.ruby.L2Cache_Controller.Fwd_DMA             21      0.00%      0.00%
system.ruby.L2Cache_Controller.All_Acks        824655      0.00%      0.00%
system.ruby.L2Cache_Controller.Data           1913291      0.00%      0.00%
system.ruby.L2Cache_Controller.L1_WBCLEANDATA       753168      0.00%      0.00%
system.ruby.L2Cache_Controller.L1_WBDIRTYDATA      1879760      0.00%      0.00%
system.ruby.L2Cache_Controller.Writeback_Ack       810528      0.00%      0.00%
system.ruby.L2Cache_Controller.Unblock        4477456      0.00%      0.00%
system.ruby.L2Cache_Controller.Exclusive_Unblock      1922735      0.00%      0.00%
system.ruby.L2Cache_Controller.DmaAck              21      0.00%      0.00%
system.ruby.L2Cache_Controller.L2_Replacement      1451791      0.00%      0.00%
system.ruby.L2Cache_Controller.NP.L1_GETS      1088636      0.00%      0.00%
system.ruby.L2Cache_Controller.NP.L1_GETX       374678      0.00%      0.00%
system.ruby.L2Cache_Controller.ILS.L1_GETS         5290      0.00%      0.00%
system.ruby.L2Cache_Controller.ILS.L1_GETX       342822      0.00%      0.00%
system.ruby.L2Cache_Controller.ILS.L1_PUTS_only       746283      0.00%      0.00%
system.ruby.L2Cache_Controller.ILS.L1_PUTS         6885      0.00%      0.00%
system.ruby.L2Cache_Controller.ILX.L1_GETS        37871      0.00%      0.00%
system.ruby.L2Cache_Controller.ILX.L1_GETX         5426      0.00%      0.00%
system.ruby.L2Cache_Controller.ILX.L1_PUTX      1879143      0.00%      0.00%
system.ruby.L2Cache_Controller.ILX.Fwd_DMA           21      0.00%      0.00%
system.ruby.L2Cache_Controller.ILOX.L1_GETS         8402      0.00%      0.00%
system.ruby.L2Cache_Controller.ILOX.L1_GETX         2046      0.00%      0.00%
system.ruby.L2Cache_Controller.ILOX.L1_PUTO          298      0.00%      0.00%
system.ruby.L2Cache_Controller.ILOSX.L1_GETS        11051      0.00%      0.00%
system.ruby.L2Cache_Controller.ILOSX.L1_GETX        17229      0.00%      0.00%
system.ruby.L2Cache_Controller.ILOSX.L1_PUTO          320      0.00%      0.00%
system.ruby.L2Cache_Controller.ILOSX.L1_PUTS_only        10746      0.00%      0.00%
system.ruby.L2Cache_Controller.ILOSX.L1_PUTS         3510      0.00%      0.00%
system.ruby.L2Cache_Controller.S.L1_GETS      1518041      0.00%      0.00%
system.ruby.L2Cache_Controller.S.L1_GETX        18182      0.00%      0.00%
system.ruby.L2Cache_Controller.S.L2_Replacement       633865      0.00%      0.00%
system.ruby.L2Cache_Controller.OLSX.L1_GETS         7769      0.00%      0.00%
system.ruby.L2Cache_Controller.OLSX.L1_GETX          170      0.00%      0.00%
system.ruby.L2Cache_Controller.OLSX.L1_PUTS_only          117      0.00%      0.00%
system.ruby.L2Cache_Controller.OLSX.L1_PUTS         7651      0.00%      0.00%
system.ruby.L2Cache_Controller.OLSX.L2_Replacement           45      0.00%      0.00%
system.ruby.L2Cache_Controller.SLS.L1_GETS       185267      0.00%      0.00%
system.ruby.L2Cache_Controller.SLS.L1_GETX        88973      0.00%      0.00%
system.ruby.L2Cache_Controller.SLS.L1_PUTS_only      1428143      0.00%      0.00%
system.ruby.L2Cache_Controller.SLS.L1_PUTS       183048      0.00%      0.00%
system.ruby.L2Cache_Controller.SLS.L2_Replacement         7398      0.00%      0.00%
system.ruby.L2Cache_Controller.M.L1_GETS       857542      0.00%      0.00%
system.ruby.L2Cache_Controller.M.L1_GETX       197582      0.00%      0.00%
system.ruby.L2Cache_Controller.M.Fwd_GETX           86      0.00%      0.00%
system.ruby.L2Cache_Controller.M.L2_Replacement       810483      0.00%      0.00%
system.ruby.L2Cache_Controller.ILOXW.L1_WBDIRTYDATA          298      0.00%      0.00%
system.ruby.L2Cache_Controller.ILOXW.Unblock        10746      0.00%      0.00%
system.ruby.L2Cache_Controller.ILOSXW.L1_WBDIRTYDATA          320      0.00%      0.00%
system.ruby.L2Cache_Controller.ILOSXW.Unblock         3510      0.00%      0.00%
system.ruby.L2Cache_Controller.SLSW.L1_GETS            7      0.00%      0.00%
system.ruby.L2Cache_Controller.SLSW.L1_PUTS            3      0.00%      0.00%
system.ruby.L2Cache_Controller.SLSW.Unblock       183048      0.00%      0.00%
system.ruby.L2Cache_Controller.ILSW.L1_WBCLEANDATA         6885      0.00%      0.00%
system.ruby.L2Cache_Controller.IW.L1_WBCLEANDATA       746283      0.00%      0.00%
system.ruby.L2Cache_Controller.SW.L1_GETS            1      0.00%      0.00%
system.ruby.L2Cache_Controller.SW.Unblock      1428143      0.00%      0.00%
system.ruby.L2Cache_Controller.OXW.Unblock          117      0.00%      0.00%
system.ruby.L2Cache_Controller.OLSXW.Unblock         7651      0.00%      0.00%
system.ruby.L2Cache_Controller.ILXW.L1_GETS            1      0.00%      0.00%
system.ruby.L2Cache_Controller.ILXW.L1_WBDIRTYDATA      1879142      0.00%      0.00%
system.ruby.L2Cache_Controller.IFLS.Unblock         5290      0.00%      0.00%
system.ruby.L2Cache_Controller.IFLOX.Unblock         8402      0.00%      0.00%
system.ruby.L2Cache_Controller.IFLOX.Exclusive_Unblock          170      0.00%      0.00%
system.ruby.L2Cache_Controller.IFLOXX.L1_GETS          111      0.00%      0.00%
system.ruby.L2Cache_Controller.IFLOXX.L1_GETX            5      0.00%      0.00%
system.ruby.L2Cache_Controller.IFLOXX.Unblock        19785      0.00%      0.00%
system.ruby.L2Cache_Controller.IFLOXX.Exclusive_Unblock        25558      0.00%      0.00%
system.ruby.L2Cache_Controller.IFLOSX.Unblock        11051      0.00%      0.00%
system.ruby.L2Cache_Controller.IFLXO.L1_GETS           87      0.00%      0.00%
system.ruby.L2Cache_Controller.IFLXO.L1_GETX            3      0.00%      0.00%
system.ruby.L2Cache_Controller.IFLXO.Exclusive_Unblock        17229      0.00%      0.00%
system.ruby.L2Cache_Controller.IGS.L1_GETS          290      0.00%      0.00%
system.ruby.L2Cache_Controller.IGS.Data       1088636      0.00%      0.00%
system.ruby.L2Cache_Controller.IGS.Unblock      1088636      0.00%      0.00%
system.ruby.L2Cache_Controller.IGM.Data        392860      0.00%      0.00%
system.ruby.L2Cache_Controller.IGMLS.Data       431795      0.00%      0.00%
system.ruby.L2Cache_Controller.IGMO.All_Acks       824655      0.00%      0.00%
system.ruby.L2Cache_Controller.IGMO.Exclusive_Unblock       824655      0.00%      0.00%
system.ruby.L2Cache_Controller.MM.Exclusive_Unblock       197582      0.00%      0.00%
system.ruby.L2Cache_Controller.SS.L1_GETS            2      0.00%      0.00%
system.ruby.L2Cache_Controller.SS.Unblock      1518041      0.00%      0.00%
system.ruby.L2Cache_Controller.OO.Exclusive_Unblock       857541      0.00%      0.00%
system.ruby.L2Cache_Controller.OLSXS.Unblock         7769      0.00%      0.00%
system.ruby.L2Cache_Controller.SLSS.L1_GETS           10      0.00%      0.00%
system.ruby.L2Cache_Controller.SLSS.L1_PUTS_only            2      0.00%      0.00%
system.ruby.L2Cache_Controller.SLSS.Unblock       185267      0.00%      0.00%
system.ruby.L2Cache_Controller.MI.L1_GETS            4      0.00%      0.00%
system.ruby.L2Cache_Controller.MI.Writeback_Ack       810483      0.00%      0.00%
system.ruby.L2Cache_Controller.OLSI.Writeback_Ack           45      0.00%      0.00%
system.ruby.L2Cache_Controller.ILXD.DmaAck           21      0.00%      0.00%

---------- End Simulation Statistics   ----------
