
---------- Begin Simulation Statistics ----------
sim_seconds                                  2.966894                       # Number of seconds simulated
sim_ticks                                2966894105500                       # Number of ticks simulated
final_tick                               56117620440501                       # Number of ticks from beginning of simulation (restored from checkpoints and never reset)
sim_freq                                 1000000000000                       # Frequency of simulated ticks
host_inst_rate                                 136722                       # Simulator instruction rate (inst/s)
host_op_rate                                   229135                       # Simulator op (including micro ops) rate (op/s)
host_tick_rate                              264549479                       # Simulator tick rate (ticks/s)
host_mem_usage                                1988364                       # Number of bytes of host memory used
host_seconds                                 11214.89                       # Real time elapsed on the host
sim_insts                                  1533321060                       # Number of instructions simulated
sim_ops                                    2569724558                       # Number of ops (including micro ops) simulated
system.voltage_domain.voltage                       1                       # Voltage in Volts
system.clk_domain.clock                          1000                       # Clock period in ticks
system.mem_ctrls.bytes_read::ruby.dir_cntrl0      9363456                       # Number of bytes read from this memory
system.mem_ctrls.bytes_read::total            9363456                       # Number of bytes read from this memory
system.mem_ctrls.bytes_written::ruby.dir_cntrl0       363968                       # Number of bytes written to this memory
system.mem_ctrls.bytes_written::total          363968                       # Number of bytes written to this memory
system.mem_ctrls.num_reads::ruby.dir_cntrl0       146304                       # Number of read requests responded to by this memory
system.mem_ctrls.num_reads::total              146304                       # Number of read requests responded to by this memory
system.mem_ctrls.num_writes::ruby.dir_cntrl0         5687                       # Number of write requests responded to by this memory
system.mem_ctrls.num_writes::total               5687                       # Number of write requests responded to by this memory
system.mem_ctrls.bw_read::ruby.dir_cntrl0      3155979                       # Total read bandwidth from this memory (bytes/s)
system.mem_ctrls.bw_read::total               3155979                       # Total read bandwidth from this memory (bytes/s)
system.mem_ctrls.bw_write::ruby.dir_cntrl0       122676                       # Write bandwidth from this memory (bytes/s)
system.mem_ctrls.bw_write::total               122676                       # Write bandwidth from this memory (bytes/s)
system.mem_ctrls.bw_total::ruby.dir_cntrl0      3278656                       # Total bandwidth to/from this memory (bytes/s)
system.mem_ctrls.bw_total::total              3278656                       # Total bandwidth to/from this memory (bytes/s)
system.mem_ctrls.readReqs                      146304                       # Number of read requests accepted
system.mem_ctrls.writeReqs                       5687                       # Number of write requests accepted
system.mem_ctrls.readBursts                    146304                       # Number of DRAM read bursts, including those serviced by the write queue
system.mem_ctrls.writeBursts                     5687                       # Number of DRAM write bursts, including those merged in the write queue
system.mem_ctrls.bytesReadDRAM                9362880                       # Total number of bytes read from DRAM
system.mem_ctrls.bytesReadWrQ                     576                       # Total number of bytes read from write queue
system.mem_ctrls.bytesWritten                  362816                       # Total number of bytes written to DRAM
system.mem_ctrls.bytesReadSys                 9363456                       # Total read bytes from the system interface side
system.mem_ctrls.bytesWrittenSys               363968                       # Total written bytes from the system interface side
system.mem_ctrls.servicedByWrQ                      9                       # Number of DRAM read bursts serviced by the write queue
system.mem_ctrls.mergedWrBursts                     0                       # Number of DRAM write bursts merged with an existing one
system.mem_ctrls.neitherReadNorWriteReqs            0                       # Number of requests that are neither read nor write
system.mem_ctrls.perBankRdBursts::0             10272                       # Per bank write bursts
system.mem_ctrls.perBankRdBursts::1              9958                       # Per bank write bursts
system.mem_ctrls.perBankRdBursts::2              9611                       # Per bank write bursts
system.mem_ctrls.perBankRdBursts::3              9338                       # Per bank write bursts
system.mem_ctrls.perBankRdBursts::4              8965                       # Per bank write bursts
system.mem_ctrls.perBankRdBursts::5              9082                       # Per bank write bursts
system.mem_ctrls.perBankRdBursts::6              8759                       # Per bank write bursts
system.mem_ctrls.perBankRdBursts::7              8683                       # Per bank write bursts
system.mem_ctrls.perBankRdBursts::8              8413                       # Per bank write bursts
system.mem_ctrls.perBankRdBursts::9              8520                       # Per bank write bursts
system.mem_ctrls.perBankRdBursts::10             8886                       # Per bank write bursts
system.mem_ctrls.perBankRdBursts::11             9414                       # Per bank write bursts
system.mem_ctrls.perBankRdBursts::12             8635                       # Per bank write bursts
system.mem_ctrls.perBankRdBursts::13             9118                       # Per bank write bursts
system.mem_ctrls.perBankRdBursts::14             9163                       # Per bank write bursts
system.mem_ctrls.perBankRdBursts::15             9478                       # Per bank write bursts
system.mem_ctrls.perBankWrBursts::0               598                       # Per bank write bursts
system.mem_ctrls.perBankWrBursts::1               557                       # Per bank write bursts
system.mem_ctrls.perBankWrBursts::2               431                       # Per bank write bursts
system.mem_ctrls.perBankWrBursts::3               336                       # Per bank write bursts
system.mem_ctrls.perBankWrBursts::4               383                       # Per bank write bursts
system.mem_ctrls.perBankWrBursts::5               230                       # Per bank write bursts
system.mem_ctrls.perBankWrBursts::6               178                       # Per bank write bursts
system.mem_ctrls.perBankWrBursts::7               237                       # Per bank write bursts
system.mem_ctrls.perBankWrBursts::8               289                       # Per bank write bursts
system.mem_ctrls.perBankWrBursts::9               349                       # Per bank write bursts
system.mem_ctrls.perBankWrBursts::10              409                       # Per bank write bursts
system.mem_ctrls.perBankWrBursts::11              405                       # Per bank write bursts
system.mem_ctrls.perBankWrBursts::12              377                       # Per bank write bursts
system.mem_ctrls.perBankWrBursts::13              239                       # Per bank write bursts
system.mem_ctrls.perBankWrBursts::14              334                       # Per bank write bursts
system.mem_ctrls.perBankWrBursts::15              317                       # Per bank write bursts
system.mem_ctrls.numRdRetry                         0                       # Number of times read queue was full causing retry
system.mem_ctrls.numWrRetry                         0                       # Number of times write queue was full causing retry
system.mem_ctrls.totGap                  2966894034500                       # Total gap between requests
system.mem_ctrls.readPktSize::0                     0                       # Read request sizes (log2)
system.mem_ctrls.readPktSize::1                     0                       # Read request sizes (log2)
system.mem_ctrls.readPktSize::2                     0                       # Read request sizes (log2)
system.mem_ctrls.readPktSize::3                     0                       # Read request sizes (log2)
system.mem_ctrls.readPktSize::4                     0                       # Read request sizes (log2)
system.mem_ctrls.readPktSize::5                     0                       # Read request sizes (log2)
system.mem_ctrls.readPktSize::6                146304                       # Read request sizes (log2)
system.mem_ctrls.writePktSize::0                    0                       # Write request sizes (log2)
system.mem_ctrls.writePktSize::1                    0                       # Write request sizes (log2)
system.mem_ctrls.writePktSize::2                    0                       # Write request sizes (log2)
system.mem_ctrls.writePktSize::3                    0                       # Write request sizes (log2)
system.mem_ctrls.writePktSize::4                    0                       # Write request sizes (log2)
system.mem_ctrls.writePktSize::5                    0                       # Write request sizes (log2)
system.mem_ctrls.writePktSize::6                 5687                       # Write request sizes (log2)
system.mem_ctrls.rdQLenPdf::0                  144193                       # What read queue length does an incoming req see
system.mem_ctrls.rdQLenPdf::1                    2098                       # What read queue length does an incoming req see
system.mem_ctrls.rdQLenPdf::2                       4                       # What read queue length does an incoming req see
system.mem_ctrls.rdQLenPdf::3                       0                       # What read queue length does an incoming req see
system.mem_ctrls.rdQLenPdf::4                       0                       # What read queue length does an incoming req see
system.mem_ctrls.rdQLenPdf::5                       0                       # What read queue length does an incoming req see
system.mem_ctrls.rdQLenPdf::6                       0                       # What read queue length does an incoming req see
system.mem_ctrls.rdQLenPdf::7                       0                       # What read queue length does an incoming req see
system.mem_ctrls.rdQLenPdf::8                       0                       # What read queue length does an incoming req see
system.mem_ctrls.rdQLenPdf::9                       0                       # What read queue length does an incoming req see
system.mem_ctrls.rdQLenPdf::10                      0                       # What read queue length does an incoming req see
system.mem_ctrls.rdQLenPdf::11                      0                       # What read queue length does an incoming req see
system.mem_ctrls.rdQLenPdf::12                      0                       # What read queue length does an incoming req see
system.mem_ctrls.rdQLenPdf::13                      0                       # What read queue length does an incoming req see
system.mem_ctrls.rdQLenPdf::14                      0                       # What read queue length does an incoming req see
system.mem_ctrls.rdQLenPdf::15                      0                       # What read queue length does an incoming req see
system.mem_ctrls.rdQLenPdf::16                      0                       # What read queue length does an incoming req see
system.mem_ctrls.rdQLenPdf::17                      0                       # What read queue length does an incoming req see
system.mem_ctrls.rdQLenPdf::18                      0                       # What read queue length does an incoming req see
system.mem_ctrls.rdQLenPdf::19                      0                       # What read queue length does an incoming req see
system.mem_ctrls.rdQLenPdf::20                      0                       # What read queue length does an incoming req see
system.mem_ctrls.rdQLenPdf::21                      0                       # What read queue length does an incoming req see
system.mem_ctrls.rdQLenPdf::22                      0                       # What read queue length does an incoming req see
system.mem_ctrls.rdQLenPdf::23                      0                       # What read queue length does an incoming req see
system.mem_ctrls.rdQLenPdf::24                      0                       # What read queue length does an incoming req see
system.mem_ctrls.rdQLenPdf::25                      0                       # What read queue length does an incoming req see
system.mem_ctrls.rdQLenPdf::26                      0                       # What read queue length does an incoming req see
system.mem_ctrls.rdQLenPdf::27                      0                       # What read queue length does an incoming req see
system.mem_ctrls.rdQLenPdf::28                      0                       # What read queue length does an incoming req see
system.mem_ctrls.rdQLenPdf::29                      0                       # What read queue length does an incoming req see
system.mem_ctrls.rdQLenPdf::30                      0                       # What read queue length does an incoming req see
system.mem_ctrls.rdQLenPdf::31                      0                       # What read queue length does an incoming req see
system.mem_ctrls.wrQLenPdf::0                       1                       # What write queue length does an incoming req see
system.mem_ctrls.wrQLenPdf::1                       1                       # What write queue length does an incoming req see
system.mem_ctrls.wrQLenPdf::2                       1                       # What write queue length does an incoming req see
system.mem_ctrls.wrQLenPdf::3                       1                       # What write queue length does an incoming req see
system.mem_ctrls.wrQLenPdf::4                       1                       # What write queue length does an incoming req see
system.mem_ctrls.wrQLenPdf::5                       1                       # What write queue length does an incoming req see
system.mem_ctrls.wrQLenPdf::6                       1                       # What write queue length does an incoming req see
system.mem_ctrls.wrQLenPdf::7                       1                       # What write queue length does an incoming req see
system.mem_ctrls.wrQLenPdf::8                       1                       # What write queue length does an incoming req see
system.mem_ctrls.wrQLenPdf::9                       1                       # What write queue length does an incoming req see
system.mem_ctrls.wrQLenPdf::10                      1                       # What write queue length does an incoming req see
system.mem_ctrls.wrQLenPdf::11                      1                       # What write queue length does an incoming req see
system.mem_ctrls.wrQLenPdf::12                      1                       # What write queue length does an incoming req see
system.mem_ctrls.wrQLenPdf::13                      1                       # What write queue length does an incoming req see
system.mem_ctrls.wrQLenPdf::14                      1                       # What write queue length does an incoming req see
system.mem_ctrls.wrQLenPdf::15                    211                       # What write queue length does an incoming req see
system.mem_ctrls.wrQLenPdf::16                    262                       # What write queue length does an incoming req see
system.mem_ctrls.wrQLenPdf::17                    288                       # What write queue length does an incoming req see
system.mem_ctrls.wrQLenPdf::18                    354                       # What write queue length does an incoming req see
system.mem_ctrls.wrQLenPdf::19                    291                       # What write queue length does an incoming req see
system.mem_ctrls.wrQLenPdf::20                    377                       # What write queue length does an incoming req see
system.mem_ctrls.wrQLenPdf::21                    325                       # What write queue length does an incoming req see
system.mem_ctrls.wrQLenPdf::22                    397                       # What write queue length does an incoming req see
system.mem_ctrls.wrQLenPdf::23                    334                       # What write queue length does an incoming req see
system.mem_ctrls.wrQLenPdf::24                    381                       # What write queue length does an incoming req see
system.mem_ctrls.wrQLenPdf::25                    319                       # What write queue length does an incoming req see
system.mem_ctrls.wrQLenPdf::26                    318                       # What write queue length does an incoming req see
system.mem_ctrls.wrQLenPdf::27                    306                       # What write queue length does an incoming req see
system.mem_ctrls.wrQLenPdf::28                    315                       # What write queue length does an incoming req see
system.mem_ctrls.wrQLenPdf::29                    282                       # What write queue length does an incoming req see
system.mem_ctrls.wrQLenPdf::30                    308                       # What write queue length does an incoming req see
system.mem_ctrls.wrQLenPdf::31                    280                       # What write queue length does an incoming req see
system.mem_ctrls.wrQLenPdf::32                    284                       # What write queue length does an incoming req see
system.mem_ctrls.wrQLenPdf::33                      6                       # What write queue length does an incoming req see
system.mem_ctrls.wrQLenPdf::34                      7                       # What write queue length does an incoming req see
system.mem_ctrls.wrQLenPdf::35                      5                       # What write queue length does an incoming req see
system.mem_ctrls.wrQLenPdf::36                      4                       # What write queue length does an incoming req see
system.mem_ctrls.wrQLenPdf::37                      4                       # What write queue length does an incoming req see
system.mem_ctrls.wrQLenPdf::38                      4                       # What write queue length does an incoming req see
system.mem_ctrls.wrQLenPdf::39                      4                       # What write queue length does an incoming req see
system.mem_ctrls.wrQLenPdf::40                      2                       # What write queue length does an incoming req see
system.mem_ctrls.wrQLenPdf::41                      2                       # What write queue length does an incoming req see
system.mem_ctrls.wrQLenPdf::42                      1                       # What write queue length does an incoming req see
system.mem_ctrls.wrQLenPdf::43                      1                       # What write queue length does an incoming req see
system.mem_ctrls.wrQLenPdf::44                      0                       # What write queue length does an incoming req see
system.mem_ctrls.wrQLenPdf::45                      0                       # What write queue length does an incoming req see
system.mem_ctrls.wrQLenPdf::46                      0                       # What write queue length does an incoming req see
system.mem_ctrls.wrQLenPdf::47                      0                       # What write queue length does an incoming req see
system.mem_ctrls.wrQLenPdf::48                      0                       # What write queue length does an incoming req see
system.mem_ctrls.wrQLenPdf::49                      0                       # What write queue length does an incoming req see
system.mem_ctrls.wrQLenPdf::50                      0                       # What write queue length does an incoming req see
system.mem_ctrls.wrQLenPdf::51                      0                       # What write queue length does an incoming req see
system.mem_ctrls.wrQLenPdf::52                      0                       # What write queue length does an incoming req see
system.mem_ctrls.wrQLenPdf::53                      0                       # What write queue length does an incoming req see
system.mem_ctrls.wrQLenPdf::54                      0                       # What write queue length does an incoming req see
system.mem_ctrls.wrQLenPdf::55                      0                       # What write queue length does an incoming req see
system.mem_ctrls.wrQLenPdf::56                      0                       # What write queue length does an incoming req see
system.mem_ctrls.wrQLenPdf::57                      0                       # What write queue length does an incoming req see
system.mem_ctrls.wrQLenPdf::58                      0                       # What write queue length does an incoming req see
system.mem_ctrls.wrQLenPdf::59                      0                       # What write queue length does an incoming req see
system.mem_ctrls.wrQLenPdf::60                      0                       # What write queue length does an incoming req see
system.mem_ctrls.wrQLenPdf::61                      0                       # What write queue length does an incoming req see
system.mem_ctrls.wrQLenPdf::62                      0                       # What write queue length does an incoming req see
system.mem_ctrls.wrQLenPdf::63                      0                       # What write queue length does an incoming req see
system.mem_ctrls.bytesPerActivate::samples        27466                       # Bytes accessed per row activation
system.mem_ctrls.bytesPerActivate::mean    354.104129                       # Bytes accessed per row activation
system.mem_ctrls.bytesPerActivate::gmean   197.989981                       # Bytes accessed per row activation
system.mem_ctrls.bytesPerActivate::stdev   379.393610                       # Bytes accessed per row activation
system.mem_ctrls.bytesPerActivate::0-127         8649     31.49%     31.49% # Bytes accessed per row activation
system.mem_ctrls.bytesPerActivate::128-255         8734     31.80%     63.29% # Bytes accessed per row activation
system.mem_ctrls.bytesPerActivate::256-383         1694      6.17%     69.46% # Bytes accessed per row activation
system.mem_ctrls.bytesPerActivate::384-511          938      3.42%     72.87% # Bytes accessed per row activation
system.mem_ctrls.bytesPerActivate::512-639          612      2.23%     75.10% # Bytes accessed per row activation
system.mem_ctrls.bytesPerActivate::640-767          448      1.63%     76.73% # Bytes accessed per row activation
system.mem_ctrls.bytesPerActivate::768-895          352      1.28%     78.01% # Bytes accessed per row activation
system.mem_ctrls.bytesPerActivate::896-1023          324      1.18%     79.19% # Bytes accessed per row activation
system.mem_ctrls.bytesPerActivate::1024-1151         5715     20.81%    100.00% # Bytes accessed per row activation
system.mem_ctrls.bytesPerActivate::total        27466                       # Bytes accessed per row activation
system.mem_ctrls.rdPerTurnAround::samples          264                       # Reads before turning the bus around for writes
system.mem_ctrls.rdPerTurnAround::mean     627.560606                       # Reads before turning the bus around for writes
system.mem_ctrls.rdPerTurnAround::stdev   3183.782702                       # Reads before turning the bus around for writes
system.mem_ctrls.rdPerTurnAround::0-1023          244     92.42%     92.42% # Reads before turning the bus around for writes
system.mem_ctrls.rdPerTurnAround::1024-2047           10      3.79%     96.21% # Reads before turning the bus around for writes
system.mem_ctrls.rdPerTurnAround::2048-3071            3      1.14%     97.35% # Reads before turning the bus around for writes
system.mem_ctrls.rdPerTurnAround::3072-4095            2      0.76%     98.11% # Reads before turning the bus around for writes
system.mem_ctrls.rdPerTurnAround::10240-11263            1      0.38%     98.48% # Reads before turning the bus around for writes
system.mem_ctrls.rdPerTurnAround::14336-15359            1      0.38%     98.86% # Reads before turning the bus around for writes
system.mem_ctrls.rdPerTurnAround::21504-22527            1      0.38%     99.24% # Reads before turning the bus around for writes
system.mem_ctrls.rdPerTurnAround::29696-30719            1      0.38%     99.62% # Reads before turning the bus around for writes
system.mem_ctrls.rdPerTurnAround::30720-31743            1      0.38%    100.00% # Reads before turning the bus around for writes
system.mem_ctrls.rdPerTurnAround::total           264                       # Reads before turning the bus around for writes
system.mem_ctrls.wrPerTurnAround::samples          264                       # Writes before turning the bus around for reads
system.mem_ctrls.wrPerTurnAround::mean      21.473485                       # Writes before turning the bus around for reads
system.mem_ctrls.wrPerTurnAround::gmean     20.646639                       # Writes before turning the bus around for reads
system.mem_ctrls.wrPerTurnAround::stdev      6.667501                       # Writes before turning the bus around for reads
system.mem_ctrls.wrPerTurnAround::16               50     18.94%     18.94% # Writes before turning the bus around for reads
system.mem_ctrls.wrPerTurnAround::17                1      0.38%     19.32% # Writes before turning the bus around for reads
system.mem_ctrls.wrPerTurnAround::18              114     43.18%     62.50% # Writes before turning the bus around for reads
system.mem_ctrls.wrPerTurnAround::19                4      1.52%     64.02% # Writes before turning the bus around for reads
system.mem_ctrls.wrPerTurnAround::20                6      2.27%     66.29% # Writes before turning the bus around for reads
system.mem_ctrls.wrPerTurnAround::21                3      1.14%     67.42% # Writes before turning the bus around for reads
system.mem_ctrls.wrPerTurnAround::22                3      1.14%     68.56% # Writes before turning the bus around for reads
system.mem_ctrls.wrPerTurnAround::23               24      9.09%     77.65% # Writes before turning the bus around for reads
system.mem_ctrls.wrPerTurnAround::24                4      1.52%     79.17% # Writes before turning the bus around for reads
system.mem_ctrls.wrPerTurnAround::25                3      1.14%     80.30% # Writes before turning the bus around for reads
system.mem_ctrls.wrPerTurnAround::26                1      0.38%     80.68% # Writes before turning the bus around for reads
system.mem_ctrls.wrPerTurnAround::27                1      0.38%     81.06% # Writes before turning the bus around for reads
system.mem_ctrls.wrPerTurnAround::29                7      2.65%     83.71% # Writes before turning the bus around for reads
system.mem_ctrls.wrPerTurnAround::30                8      3.03%     86.74% # Writes before turning the bus around for reads
system.mem_ctrls.wrPerTurnAround::31                1      0.38%     87.12% # Writes before turning the bus around for reads
system.mem_ctrls.wrPerTurnAround::34                3      1.14%     88.26% # Writes before turning the bus around for reads
system.mem_ctrls.wrPerTurnAround::35               26      9.85%     98.11% # Writes before turning the bus around for reads
system.mem_ctrls.wrPerTurnAround::38                1      0.38%     98.48% # Writes before turning the bus around for reads
system.mem_ctrls.wrPerTurnAround::41                2      0.76%     99.24% # Writes before turning the bus around for reads
system.mem_ctrls.wrPerTurnAround::45                1      0.38%     99.62% # Writes before turning the bus around for reads
system.mem_ctrls.wrPerTurnAround::48                1      0.38%    100.00% # Writes before turning the bus around for reads
system.mem_ctrls.wrPerTurnAround::total           264                       # Writes before turning the bus around for reads
system.mem_ctrls.totQLat                    763763960                       # Total ticks spent queuing
system.mem_ctrls.totMemAccLat              3506795210                       # Total ticks spent from burst creation until serviced by the DRAM
system.mem_ctrls.totBusLat                  731475000                       # Total ticks spent in databus transfers
system.mem_ctrls.avgQLat                      5220.71                       # Average queueing delay per DRAM burst
system.mem_ctrls.avgBusLat                    5000.00                       # Average bus latency per DRAM burst
system.mem_ctrls.avgMemAccLat                23970.71                       # Average memory access latency per DRAM burst
system.mem_ctrls.avgRdBW                         3.16                       # Average DRAM read bandwidth in MiByte/s
system.mem_ctrls.avgWrBW                         0.12                       # Average achieved write bandwidth in MiByte/s
system.mem_ctrls.avgRdBWSys                      3.16                       # Average system read bandwidth in MiByte/s
system.mem_ctrls.avgWrBWSys                      0.12                       # Average system write bandwidth in MiByte/s
system.mem_ctrls.peakBW                      12800.00                       # Theoretical peak bandwidth in MiByte/s
system.mem_ctrls.busUtil                         0.03                       # Data bus utilization in percentage
system.mem_ctrls.busUtilRead                     0.02                       # Data bus utilization in percentage for reads
system.mem_ctrls.busUtilWrite                    0.00                       # Data bus utilization in percentage for writes
system.mem_ctrls.avgRdQLen                       1.00                       # Average read queue length when enqueuing
system.mem_ctrls.avgWrQLen                      22.11                       # Average write queue length when enqueuing
system.mem_ctrls.readRowHits                   120724                       # Number of row buffer hits during reads
system.mem_ctrls.writeRowHits                    3774                       # Number of row buffer hits during writes
system.mem_ctrls.readRowHitRate                 82.52                       # Row buffer hit rate for reads
system.mem_ctrls.writeRowHitRate                66.36                       # Row buffer hit rate for writes
system.mem_ctrls.avgGap                   19520195.50                       # Average gap between requests
system.mem_ctrls.pageHitRate                    81.92                       # Row buffer hit rate, read and write combined
system.mem_ctrls_0.actEnergy                126819000                       # Energy for activate commands per rank (pJ)
system.mem_ctrls_0.preEnergy                 69196875                       # Energy for precharge commands per rank (pJ)
system.mem_ctrls_0.readEnergy               650130000                       # Energy for read commands per rank (pJ)
system.mem_ctrls_0.writeEnergy               19116000                       # Energy for write commands per rank (pJ)
system.mem_ctrls_0.refreshEnergy         194047679280                       # Energy for refresh commands per rank (pJ)
system.mem_ctrls_0.actBackEnergy          84650718240                       # Energy for active background per rank (pJ)
system.mem_ctrls_0.preBackEnergy         1708312085250                       # Energy for precharge background per rank (pJ)
system.mem_ctrls_0.totalEnergy           1987875744645                       # Total energy per rank (pJ)
system.mem_ctrls_0.averagePower            669.105497                       # Core power per rank (mW)
system.mem_ctrls_0.memoryStateTime::IDLE 2840189614251                       # Time in different power states
system.mem_ctrls_0.memoryStateTime::REF   99071180000                       # Time in different power states
system.mem_ctrls_0.memoryStateTime::PRE_PDN            0                       # Time in different power states
system.mem_ctrls_0.memoryStateTime::ACT   27631167749                       # Time in different power states
system.mem_ctrls_0.memoryStateTime::ACT_PDN            0                       # Time in different power states
system.mem_ctrls_1.actEnergy                115002720                       # Energy for activate commands per rank (pJ)
system.mem_ctrls_1.preEnergy                 62749500                       # Energy for precharge commands per rank (pJ)
system.mem_ctrls_1.readEnergy               642345600                       # Energy for read commands per rank (pJ)
system.mem_ctrls_1.writeEnergy               17619120                       # Energy for write commands per rank (pJ)
system.mem_ctrls_1.refreshEnergy         194047679280                       # Energy for refresh commands per rank (pJ)
system.mem_ctrls_1.actBackEnergy          82485123795                       # Energy for active background per rank (pJ)
system.mem_ctrls_1.preBackEnergy         1710211729500                       # Energy for precharge background per rank (pJ)
system.mem_ctrls_1.totalEnergy           1987582249515                       # Total energy per rank (pJ)
system.mem_ctrls_1.averagePower            669.006709                       # Core power per rank (mW)
system.mem_ctrls_1.memoryStateTime::IDLE 2843450018750                       # Time in different power states
system.mem_ctrls_1.memoryStateTime::REF   99071180000                       # Time in different power states
system.mem_ctrls_1.memoryStateTime::PRE_PDN            0                       # Time in different power states
system.mem_ctrls_1.memoryStateTime::ACT   24374860000                       # Time in different power states
system.mem_ctrls_1.memoryStateTime::ACT_PDN            0                       # Time in different power states
system.cpu_voltage_domain.voltage                   1                       # Voltage in Volts
system.cpu_clk_domain.clock                       500                       # Clock period in ticks
system.cpu0.apic_clk_domain.clock                8000                       # Clock period in ticks
system.cpu0.numCycles                      5931203808                       # number of cpu cycles simulated
system.cpu0.numWorkItemsStarted                     0                       # number of work items this cpu started
system.cpu0.numWorkItemsCompleted                   0                       # number of work items this cpu completed
system.cpu0.kern.inst.arm                           0                       # number of arm instructions executed
system.cpu0.kern.inst.quiesce                       0                       # number of quiesce instructions executed
system.cpu0.committedInsts                   48147206                       # Number of instructions committed
system.cpu0.committedOps                     84894766                       # Number of ops (including micro ops) committed
system.cpu0.num_int_alu_accesses             74388667                       # Number of integer alu accesses
system.cpu0.num_fp_alu_accesses              19654241                       # Number of float alu accesses
system.cpu0.num_func_calls                    1291234                       # number of times a function call or return occured
system.cpu0.num_conditional_control_insts      6363148                       # number of instructions that are conditional controls
system.cpu0.num_int_insts                    74388667                       # number of integer instructions
system.cpu0.num_fp_insts                     19654241                       # number of float instructions
system.cpu0.num_int_register_reads          152470060                       # number of times the integer registers were read
system.cpu0.num_int_register_writes          55472783                       # number of times the integer registers were written
system.cpu0.num_fp_register_reads            27210082                       # number of times the floating registers were read
system.cpu0.num_fp_register_writes           14481510                       # number of times the floating registers were written
system.cpu0.num_cc_register_reads            57445926                       # number of times the CC registers were read
system.cpu0.num_cc_register_writes           23277505                       # number of times the CC registers were written
system.cpu0.num_mem_refs                     20175469                       # number of memory refs
system.cpu0.num_load_insts                   13631504                       # Number of load instructions
system.cpu0.num_store_insts                   6543965                       # Number of store instructions
system.cpu0.num_idle_cycles              5750728561.511969                       # Number of idle cycles
system.cpu0.num_busy_cycles              180475246.488031                       # Number of busy cycles
system.cpu0.not_idle_fraction                0.030428                       # Percentage of non-idle cycles
system.cpu0.idle_fraction                    0.969572                       # Percentage of idle cycles
system.cpu0.Branches                          8625208                       # Number of branches fetched
system.cpu0.op_class::No_OpClass               203718      0.24%      0.24% # Class of executed instruction
system.cpu0.op_class::IntAlu                 55461329     65.33%     65.57% # Class of executed instruction
system.cpu0.op_class::IntMult                  243944      0.29%     65.86% # Class of executed instruction
system.cpu0.op_class::IntDiv                   836294      0.99%     66.84% # Class of executed instruction
system.cpu0.op_class::FloatAdd                7916184      9.32%     76.17% # Class of executed instruction
system.cpu0.op_class::FloatCmp                      0      0.00%     76.17% # Class of executed instruction
system.cpu0.op_class::FloatCvt                      0      0.00%     76.17% # Class of executed instruction
system.cpu0.op_class::FloatMult                     0      0.00%     76.17% # Class of executed instruction
system.cpu0.op_class::FloatDiv                  57876      0.07%     76.23% # Class of executed instruction
system.cpu0.op_class::FloatSqrt                     0      0.00%     76.23% # Class of executed instruction
system.cpu0.op_class::SimdAdd                       0      0.00%     76.23% # Class of executed instruction
system.cpu0.op_class::SimdAddAcc                    0      0.00%     76.23% # Class of executed instruction
system.cpu0.op_class::SimdAlu                       0      0.00%     76.23% # Class of executed instruction
system.cpu0.op_class::SimdCmp                       0      0.00%     76.23% # Class of executed instruction
system.cpu0.op_class::SimdCvt                       0      0.00%     76.23% # Class of executed instruction
system.cpu0.op_class::SimdMisc                      0      0.00%     76.23% # Class of executed instruction
system.cpu0.op_class::SimdMult                      0      0.00%     76.23% # Class of executed instruction
system.cpu0.op_class::SimdMultAcc                   0      0.00%     76.23% # Class of executed instruction
system.cpu0.op_class::SimdShift                     0      0.00%     76.23% # Class of executed instruction
system.cpu0.op_class::SimdShiftAcc                  0      0.00%     76.23% # Class of executed instruction
system.cpu0.op_class::SimdSqrt                      0      0.00%     76.23% # Class of executed instruction
system.cpu0.op_class::SimdFloatAdd                  0      0.00%     76.23% # Class of executed instruction
system.cpu0.op_class::SimdFloatAlu                  0      0.00%     76.23% # Class of executed instruction
system.cpu0.op_class::SimdFloatCmp                  0      0.00%     76.23% # Class of executed instruction
system.cpu0.op_class::SimdFloatCvt                  0      0.00%     76.23% # Class of executed instruction
system.cpu0.op_class::SimdFloatDiv                  0      0.00%     76.23% # Class of executed instruction
system.cpu0.op_class::SimdFloatMisc                 0      0.00%     76.23% # Class of executed instruction
system.cpu0.op_class::SimdFloatMult                 0      0.00%     76.23% # Class of executed instruction
system.cpu0.op_class::SimdFloatMultAcc              0      0.00%     76.23% # Class of executed instruction
system.cpu0.op_class::SimdFloatSqrt                 0      0.00%     76.23% # Class of executed instruction
system.cpu0.op_class::MemRead                13631504     16.06%     92.29% # Class of executed instruction
system.cpu0.op_class::MemWrite                6543965      7.71%    100.00% # Class of executed instruction
system.cpu0.op_class::IprAccess                     0      0.00%    100.00% # Class of executed instruction
system.cpu0.op_class::InstPrefetch                  0      0.00%    100.00% # Class of executed instruction
system.cpu0.op_class::total                  84894814                       # Class of executed instruction
system.cpu1.apic_clk_domain.clock                8000                       # Clock period in ticks
system.cpu1.numCycles                      5933369642                       # number of cpu cycles simulated
system.cpu1.numWorkItemsStarted                     0                       # number of work items this cpu started
system.cpu1.numWorkItemsCompleted                   0                       # number of work items this cpu completed
system.cpu1.kern.inst.arm                           0                       # number of arm instructions executed
system.cpu1.kern.inst.quiesce                       0                       # number of quiesce instructions executed
system.cpu1.committedInsts                  746885393                       # Number of instructions committed
system.cpu1.committedOps                   1240075342                       # Number of ops (including micro ops) committed
system.cpu1.num_int_alu_accesses            943058315                       # Number of integer alu accesses
system.cpu1.num_fp_alu_accesses             479639499                       # Number of float alu accesses
system.cpu1.num_func_calls                   17075427                       # number of times a function call or return occured
system.cpu1.num_conditional_control_insts     84342117                       # number of instructions that are conditional controls
system.cpu1.num_int_insts                   943058315                       # number of integer instructions
system.cpu1.num_fp_insts                    479639499                       # number of float instructions
system.cpu1.num_int_register_reads         1985025048                       # number of times the integer registers were read
system.cpu1.num_int_register_writes         635720713                       # number of times the integer registers were written
system.cpu1.num_fp_register_reads           764006129                       # number of times the floating registers were read
system.cpu1.num_fp_register_writes          392319725                       # number of times the floating registers were written
system.cpu1.num_cc_register_reads           706747987                       # number of times the CC registers were read
system.cpu1.num_cc_register_writes          271246585                       # number of times the CC registers were written
system.cpu1.num_mem_refs                    311685489                       # number of memory refs
system.cpu1.num_load_insts                  231724664                       # Number of load instructions
system.cpu1.num_store_insts                  79960825                       # Number of store instructions
system.cpu1.num_idle_cycles              3022914714.794443                       # Number of idle cycles
system.cpu1.num_busy_cycles              2910454927.205556                       # Number of busy cycles
system.cpu1.not_idle_fraction                0.490523                       # Percentage of non-idle cycles
system.cpu1.idle_fraction                    0.509477                       # Percentage of idle cycles
system.cpu1.Branches                        113235661                       # Number of branches fetched
system.cpu1.op_class::No_OpClass              1554597      0.13%      0.13% # Class of executed instruction
system.cpu1.op_class::IntAlu                715681195     57.71%     57.84% # Class of executed instruction
system.cpu1.op_class::IntMult                 2110011      0.17%     58.01% # Class of executed instruction
system.cpu1.op_class::IntDiv                  8189967      0.66%     58.67% # Class of executed instruction
system.cpu1.op_class::FloatAdd              200438644     16.16%     74.83% # Class of executed instruction
system.cpu1.op_class::FloatCmp                      0      0.00%     74.83% # Class of executed instruction
system.cpu1.op_class::FloatCvt                      0      0.00%     74.83% # Class of executed instruction
system.cpu1.op_class::FloatMult                     0      0.00%     74.83% # Class of executed instruction
system.cpu1.op_class::FloatDiv                 415563      0.03%     74.87% # Class of executed instruction
system.cpu1.op_class::FloatSqrt                     0      0.00%     74.87% # Class of executed instruction
system.cpu1.op_class::SimdAdd                       0      0.00%     74.87% # Class of executed instruction
system.cpu1.op_class::SimdAddAcc                    0      0.00%     74.87% # Class of executed instruction
system.cpu1.op_class::SimdAlu                       0      0.00%     74.87% # Class of executed instruction
system.cpu1.op_class::SimdCmp                       0      0.00%     74.87% # Class of executed instruction
system.cpu1.op_class::SimdCvt                       0      0.00%     74.87% # Class of executed instruction
system.cpu1.op_class::SimdMisc                      0      0.00%     74.87% # Class of executed instruction
system.cpu1.op_class::SimdMult                      0      0.00%     74.87% # Class of executed instruction
system.cpu1.op_class::SimdMultAcc                   0      0.00%     74.87% # Class of executed instruction
system.cpu1.op_class::SimdShift                     0      0.00%     74.87% # Class of executed instruction
system.cpu1.op_class::SimdShiftAcc                  0      0.00%     74.87% # Class of executed instruction
system.cpu1.op_class::SimdSqrt                      0      0.00%     74.87% # Class of executed instruction
system.cpu1.op_class::SimdFloatAdd                  0      0.00%     74.87% # Class of executed instruction
system.cpu1.op_class::SimdFloatAlu                  0      0.00%     74.87% # Class of executed instruction
system.cpu1.op_class::SimdFloatCmp                  0      0.00%     74.87% # Class of executed instruction
system.cpu1.op_class::SimdFloatCvt                  0      0.00%     74.87% # Class of executed instruction
system.cpu1.op_class::SimdFloatDiv                  0      0.00%     74.87% # Class of executed instruction
system.cpu1.op_class::SimdFloatMisc                 0      0.00%     74.87% # Class of executed instruction
system.cpu1.op_class::SimdFloatMult                 0      0.00%     74.87% # Class of executed instruction
system.cpu1.op_class::SimdFloatMultAcc              0      0.00%     74.87% # Class of executed instruction
system.cpu1.op_class::SimdFloatSqrt                 0      0.00%     74.87% # Class of executed instruction
system.cpu1.op_class::MemRead               231724664     18.69%     93.55% # Class of executed instruction
system.cpu1.op_class::MemWrite               79960825      6.45%    100.00% # Class of executed instruction
system.cpu1.op_class::IprAccess                     0      0.00%    100.00% # Class of executed instruction
system.cpu1.op_class::InstPrefetch                  0      0.00%    100.00% # Class of executed instruction
system.cpu1.op_class::total                1240075466                       # Class of executed instruction
system.cpu2.apic_clk_domain.clock                8000                       # Clock period in ticks
system.cpu2.numCycles                      5932243964                       # number of cpu cycles simulated
system.cpu2.numWorkItemsStarted                     0                       # number of work items this cpu started
system.cpu2.numWorkItemsCompleted                   0                       # number of work items this cpu completed
system.cpu2.kern.inst.arm                           0                       # number of arm instructions executed
system.cpu2.kern.inst.quiesce                       0                       # number of quiesce instructions executed
system.cpu2.committedInsts                    2716472                       # Number of instructions committed
system.cpu2.committedOps                      5739013                       # Number of ops (including micro ops) committed
system.cpu2.num_int_alu_accesses              5628461                       # Number of integer alu accesses
system.cpu2.num_fp_alu_accesses                   154                       # Number of float alu accesses
system.cpu2.num_func_calls                     149468                       # number of times a function call or return occured
system.cpu2.num_conditional_control_insts       471456                       # number of instructions that are conditional controls
system.cpu2.num_int_insts                     5628461                       # number of integer instructions
system.cpu2.num_fp_insts                          154                       # number of float instructions
system.cpu2.num_int_register_reads           11125636                       # number of times the integer registers were read
system.cpu2.num_int_register_writes           4628410                       # number of times the integer registers were written
system.cpu2.num_fp_register_reads                 258                       # number of times the floating registers were read
system.cpu2.num_fp_register_writes                126                       # number of times the floating registers were written
system.cpu2.num_cc_register_reads             3541257                       # number of times the CC registers were read
system.cpu2.num_cc_register_writes            1805161                       # number of times the CC registers were written
system.cpu2.num_mem_refs                      1265330                       # number of memory refs
system.cpu2.num_load_insts                     792411                       # Number of load instructions
system.cpu2.num_store_insts                    472919                       # Number of store instructions
system.cpu2.num_idle_cycles              5921107683.979187                       # Number of idle cycles
system.cpu2.num_busy_cycles              11136280.020813                       # Number of busy cycles
system.cpu2.not_idle_fraction                0.001877                       # Percentage of non-idle cycles
system.cpu2.idle_fraction                    0.998123                       # Percentage of idle cycles
system.cpu2.Branches                           666936                       # Number of branches fetched
system.cpu2.op_class::No_OpClass                86261      1.50%      1.50% # Class of executed instruction
system.cpu2.op_class::IntAlu                  4345815     75.72%     77.23% # Class of executed instruction
system.cpu2.op_class::IntMult                   12510      0.22%     77.44% # Class of executed instruction
system.cpu2.op_class::IntDiv                    29002      0.51%     77.95% # Class of executed instruction
system.cpu2.op_class::FloatAdd                    120      0.00%     77.95% # Class of executed instruction
system.cpu2.op_class::FloatCmp                      0      0.00%     77.95% # Class of executed instruction
system.cpu2.op_class::FloatCvt                      0      0.00%     77.95% # Class of executed instruction
system.cpu2.op_class::FloatMult                     0      0.00%     77.95% # Class of executed instruction
system.cpu2.op_class::FloatDiv                      0      0.00%     77.95% # Class of executed instruction
system.cpu2.op_class::FloatSqrt                     0      0.00%     77.95% # Class of executed instruction
system.cpu2.op_class::SimdAdd                       0      0.00%     77.95% # Class of executed instruction
system.cpu2.op_class::SimdAddAcc                    0      0.00%     77.95% # Class of executed instruction
system.cpu2.op_class::SimdAlu                       0      0.00%     77.95% # Class of executed instruction
system.cpu2.op_class::SimdCmp                       0      0.00%     77.95% # Class of executed instruction
system.cpu2.op_class::SimdCvt                       0      0.00%     77.95% # Class of executed instruction
system.cpu2.op_class::SimdMisc                      0      0.00%     77.95% # Class of executed instruction
system.cpu2.op_class::SimdMult                      0      0.00%     77.95% # Class of executed instruction
system.cpu2.op_class::SimdMultAcc                   0      0.00%     77.95% # Class of executed instruction
system.cpu2.op_class::SimdShift                     0      0.00%     77.95% # Class of executed instruction
system.cpu2.op_class::SimdShiftAcc                  0      0.00%     77.95% # Class of executed instruction
system.cpu2.op_class::SimdSqrt                      0      0.00%     77.95% # Class of executed instruction
system.cpu2.op_class::SimdFloatAdd                  0      0.00%     77.95% # Class of executed instruction
system.cpu2.op_class::SimdFloatAlu                  0      0.00%     77.95% # Class of executed instruction
system.cpu2.op_class::SimdFloatCmp                  0      0.00%     77.95% # Class of executed instruction
system.cpu2.op_class::SimdFloatCvt                  0      0.00%     77.95% # Class of executed instruction
system.cpu2.op_class::SimdFloatDiv                  0      0.00%     77.95% # Class of executed instruction
system.cpu2.op_class::SimdFloatMisc                 0      0.00%     77.95% # Class of executed instruction
system.cpu2.op_class::SimdFloatMult                 0      0.00%     77.95% # Class of executed instruction
system.cpu2.op_class::SimdFloatMultAcc              0      0.00%     77.95% # Class of executed instruction
system.cpu2.op_class::SimdFloatSqrt                 0      0.00%     77.95% # Class of executed instruction
system.cpu2.op_class::MemRead                  792411     13.81%     91.76% # Class of executed instruction
system.cpu2.op_class::MemWrite                 472919      8.24%    100.00% # Class of executed instruction
system.cpu2.op_class::IprAccess                     0      0.00%    100.00% # Class of executed instruction
system.cpu2.op_class::InstPrefetch                  0      0.00%    100.00% # Class of executed instruction
system.cpu2.op_class::total                   5739038                       # Class of executed instruction
system.cpu3.apic_clk_domain.clock                8000                       # Clock period in ticks
system.cpu3.numCycles                      5938769306                       # number of cpu cycles simulated
system.cpu3.numWorkItemsStarted                     0                       # number of work items this cpu started
system.cpu3.numWorkItemsCompleted                   0                       # number of work items this cpu completed
system.cpu3.kern.inst.arm                           0                       # number of arm instructions executed
system.cpu3.kern.inst.quiesce                       0                       # number of quiesce instructions executed
system.cpu3.committedInsts                  733994822                       # Number of instructions committed
system.cpu3.committedOps                   1236080976                       # Number of ops (including micro ops) committed
system.cpu3.num_int_alu_accesses            947819185                       # Number of integer alu accesses
system.cpu3.num_fp_alu_accesses             466309595                       # Number of float alu accesses
system.cpu3.num_func_calls                   17491731                       # number of times a function call or return occured
system.cpu3.num_conditional_control_insts     82227717                       # number of instructions that are conditional controls
system.cpu3.num_int_insts                   947819185                       # number of integer instructions
system.cpu3.num_fp_insts                    466309595                       # number of float instructions
system.cpu3.num_int_register_reads         2023405314                       # number of times the integer registers were read
system.cpu3.num_int_register_writes         651233001                       # number of times the integer registers were written
system.cpu3.num_fp_register_reads           738752022                       # number of times the floating registers were read
system.cpu3.num_fp_register_writes          383221426                       # number of times the floating registers were written
system.cpu3.num_cc_register_reads           692953909                       # number of times the CC registers were read
system.cpu3.num_cc_register_writes          260850504                       # number of times the CC registers were written
system.cpu3.num_mem_refs                    316328485                       # number of memory refs
system.cpu3.num_load_insts                  235165990                       # Number of load instructions
system.cpu3.num_store_insts                  81162495                       # Number of store instructions
system.cpu3.num_idle_cycles              3066177418.654821                       # Number of idle cycles
system.cpu3.num_busy_cycles              2872591887.345179                       # Number of busy cycles
system.cpu3.not_idle_fraction                0.483702                       # Percentage of non-idle cycles
system.cpu3.idle_fraction                    0.516298                       # Percentage of idle cycles
system.cpu3.Branches                        111437510                       # Number of branches fetched
system.cpu3.op_class::No_OpClass              1819948      0.15%      0.15% # Class of executed instruction
system.cpu3.op_class::IntAlu                714551315     57.81%     57.96% # Class of executed instruction
system.cpu3.op_class::IntMult                 2403604      0.19%     58.15% # Class of executed instruction
system.cpu3.op_class::IntDiv                 10643615      0.86%     59.01% # Class of executed instruction
system.cpu3.op_class::FloatAdd              189739388     15.35%     74.36% # Class of executed instruction
system.cpu3.op_class::FloatCmp                      0      0.00%     74.36% # Class of executed instruction
system.cpu3.op_class::FloatCvt                      0      0.00%     74.36% # Class of executed instruction
system.cpu3.op_class::FloatMult                     0      0.00%     74.36% # Class of executed instruction
system.cpu3.op_class::FloatDiv                 594717      0.05%     74.41% # Class of executed instruction
system.cpu3.op_class::FloatSqrt                     0      0.00%     74.41% # Class of executed instruction
system.cpu3.op_class::SimdAdd                       0      0.00%     74.41% # Class of executed instruction
system.cpu3.op_class::SimdAddAcc                    0      0.00%     74.41% # Class of executed instruction
system.cpu3.op_class::SimdAlu                       0      0.00%     74.41% # Class of executed instruction
system.cpu3.op_class::SimdCmp                       0      0.00%     74.41% # Class of executed instruction
system.cpu3.op_class::SimdCvt                       0      0.00%     74.41% # Class of executed instruction
system.cpu3.op_class::SimdMisc                      0      0.00%     74.41% # Class of executed instruction
system.cpu3.op_class::SimdMult                      0      0.00%     74.41% # Class of executed instruction
system.cpu3.op_class::SimdMultAcc                   0      0.00%     74.41% # Class of executed instruction
system.cpu3.op_class::SimdShift                     0      0.00%     74.41% # Class of executed instruction
system.cpu3.op_class::SimdShiftAcc                  0      0.00%     74.41% # Class of executed instruction
system.cpu3.op_class::SimdSqrt                      0      0.00%     74.41% # Class of executed instruction
system.cpu3.op_class::SimdFloatAdd                  0      0.00%     74.41% # Class of executed instruction
system.cpu3.op_class::SimdFloatAlu                  0      0.00%     74.41% # Class of executed instruction
system.cpu3.op_class::SimdFloatCmp                  0      0.00%     74.41% # Class of executed instruction
system.cpu3.op_class::SimdFloatCvt                  0      0.00%     74.41% # Class of executed instruction
system.cpu3.op_class::SimdFloatDiv                  0      0.00%     74.41% # Class of executed instruction
system.cpu3.op_class::SimdFloatMisc                 0      0.00%     74.41% # Class of executed instruction
system.cpu3.op_class::SimdFloatMult                 0      0.00%     74.41% # Class of executed instruction
system.cpu3.op_class::SimdFloatMultAcc              0      0.00%     74.41% # Class of executed instruction
system.cpu3.op_class::SimdFloatSqrt                 0      0.00%     74.41% # Class of executed instruction
system.cpu3.op_class::MemRead               235165990     19.03%     93.43% # Class of executed instruction
system.cpu3.op_class::MemWrite               81162495      6.57%    100.00% # Class of executed instruction
system.cpu3.op_class::IprAccess                     0      0.00%    100.00% # Class of executed instruction
system.cpu3.op_class::InstPrefetch                  0      0.00%    100.00% # Class of executed instruction
system.cpu3.op_class::total                1236081072                       # Class of executed instruction
system.iobus.trans_dist::ReadReq                  829                       # Transaction distribution
system.iobus.trans_dist::ReadResp                 829                       # Transaction distribution
system.iobus.trans_dist::WriteReq                4527                       # Transaction distribution
system.iobus.trans_dist::WriteResp               4527                       # Transaction distribution
system.iobus.trans_dist::MessageReq               108                       # Transaction distribution
system.iobus.trans_dist::MessageResp              108                       # Transaction distribution
system.iobus.pkt_count_system.pc.south_bridge.io_apic.int_master::system.ruby.l1_cntrl0.sequencer.pio-slave-port           50                       # Packet count per connected master and slave (bytes)
system.iobus.pkt_count_system.pc.south_bridge.io_apic.int_master::system.ruby.l1_cntrl1.sequencer.pio-slave-port           50                       # Packet count per connected master and slave (bytes)
system.iobus.pkt_count_system.pc.south_bridge.io_apic.int_master::system.ruby.l1_cntrl2.sequencer.pio-slave-port           48                       # Packet count per connected master and slave (bytes)
system.iobus.pkt_count_system.pc.south_bridge.io_apic.int_master::system.ruby.l1_cntrl3.sequencer.pio-slave-port           48                       # Packet count per connected master and slave (bytes)
system.iobus.pkt_count_system.pc.south_bridge.io_apic.int_master::total          196                       # Packet count per connected master and slave (bytes)
system.iobus.pkt_count_system.ruby.l1_cntrl0.sequencer.mem-master-port::system.pc.south_bridge.ide.pio         1070                       # Packet count per connected master and slave (bytes)
system.iobus.pkt_count_system.ruby.l1_cntrl0.sequencer.mem-master-port::system.pc.south_bridge.io_apic.pio            6                       # Packet count per connected master and slave (bytes)
system.iobus.pkt_count_system.ruby.l1_cntrl0.sequencer.mem-master-port::system.pc.com_1.pio           22                       # Packet count per connected master and slave (bytes)
system.iobus.pkt_count_system.ruby.l1_cntrl0.sequencer.mem-master-port::system.ruby.l1_cntrl0.sequencer.pio-slave-port         1548                       # Packet count per connected master and slave (bytes)
system.iobus.pkt_count_system.ruby.l1_cntrl0.sequencer.mem-master-port::system.ruby.l1_cntrl1.sequencer.pio-slave-port            2                       # Packet count per connected master and slave (bytes)
system.iobus.pkt_count_system.ruby.l1_cntrl0.sequencer.mem-master-port::total         2648                       # Packet count per connected master and slave (bytes)
system.iobus.pkt_count_system.ruby.l1_cntrl1.sequencer.mem-master-port::system.pc.south_bridge.ide.pio         1194                       # Packet count per connected master and slave (bytes)
system.iobus.pkt_count_system.ruby.l1_cntrl1.sequencer.mem-master-port::system.pc.south_bridge.io_apic.pio           14                       # Packet count per connected master and slave (bytes)
system.iobus.pkt_count_system.ruby.l1_cntrl1.sequencer.mem-master-port::system.pc.com_1.pio          162                       # Packet count per connected master and slave (bytes)
system.iobus.pkt_count_system.ruby.l1_cntrl1.sequencer.mem-master-port::system.ruby.l1_cntrl0.sequencer.pio-slave-port            4                       # Packet count per connected master and slave (bytes)
system.iobus.pkt_count_system.ruby.l1_cntrl1.sequencer.mem-master-port::system.ruby.l1_cntrl1.sequencer.pio-slave-port         1558                       # Packet count per connected master and slave (bytes)
system.iobus.pkt_count_system.ruby.l1_cntrl1.sequencer.mem-master-port::system.ruby.l1_cntrl2.sequencer.pio-slave-port            2                       # Packet count per connected master and slave (bytes)
system.iobus.pkt_count_system.ruby.l1_cntrl1.sequencer.mem-master-port::total         2934                       # Packet count per connected master and slave (bytes)
system.iobus.pkt_count_system.ruby.l1_cntrl2.sequencer.mem-master-port::system.pc.south_bridge.ide.pio          990                       # Packet count per connected master and slave (bytes)
system.iobus.pkt_count_system.ruby.l1_cntrl2.sequencer.mem-master-port::system.pc.south_bridge.io_apic.pio            8                       # Packet count per connected master and slave (bytes)
system.iobus.pkt_count_system.ruby.l1_cntrl2.sequencer.mem-master-port::system.ruby.l1_cntrl0.sequencer.pio-slave-port            2                       # Packet count per connected master and slave (bytes)
system.iobus.pkt_count_system.ruby.l1_cntrl2.sequencer.mem-master-port::system.ruby.l1_cntrl2.sequencer.pio-slave-port         1548                       # Packet count per connected master and slave (bytes)
system.iobus.pkt_count_system.ruby.l1_cntrl2.sequencer.mem-master-port::system.ruby.l1_cntrl3.sequencer.pio-slave-port            2                       # Packet count per connected master and slave (bytes)
system.iobus.pkt_count_system.ruby.l1_cntrl2.sequencer.mem-master-port::total         2550                       # Packet count per connected master and slave (bytes)
system.iobus.pkt_count_system.ruby.l1_cntrl3.sequencer.mem-master-port::system.pc.south_bridge.ide.pio         1024                       # Packet count per connected master and slave (bytes)
system.iobus.pkt_count_system.ruby.l1_cntrl3.sequencer.mem-master-port::system.pc.south_bridge.io_apic.pio            8                       # Packet count per connected master and slave (bytes)
system.iobus.pkt_count_system.ruby.l1_cntrl3.sequencer.mem-master-port::system.ruby.l1_cntrl0.sequencer.pio-slave-port            2                       # Packet count per connected master and slave (bytes)
system.iobus.pkt_count_system.ruby.l1_cntrl3.sequencer.mem-master-port::system.ruby.l1_cntrl1.sequencer.pio-slave-port            4                       # Packet count per connected master and slave (bytes)
system.iobus.pkt_count_system.ruby.l1_cntrl3.sequencer.mem-master-port::system.ruby.l1_cntrl2.sequencer.pio-slave-port            2                       # Packet count per connected master and slave (bytes)
system.iobus.pkt_count_system.ruby.l1_cntrl3.sequencer.mem-master-port::system.ruby.l1_cntrl3.sequencer.pio-slave-port         1560                       # Packet count per connected master and slave (bytes)
system.iobus.pkt_count_system.ruby.l1_cntrl3.sequencer.mem-master-port::total         2600                       # Packet count per connected master and slave (bytes)
system.iobus.pkt_count::total                   10928                       # Packet count per connected master and slave (bytes)
system.iobus.pkt_size_system.pc.south_bridge.io_apic.int_master::system.ruby.l1_cntrl0.sequencer.pio-slave-port          100                       # Cumulative packet size per connected master and slave (bytes)
system.iobus.pkt_size_system.pc.south_bridge.io_apic.int_master::system.ruby.l1_cntrl1.sequencer.pio-slave-port          100                       # Cumulative packet size per connected master and slave (bytes)
system.iobus.pkt_size_system.pc.south_bridge.io_apic.int_master::system.ruby.l1_cntrl2.sequencer.pio-slave-port           96                       # Cumulative packet size per connected master and slave (bytes)
system.iobus.pkt_size_system.pc.south_bridge.io_apic.int_master::system.ruby.l1_cntrl3.sequencer.pio-slave-port           96                       # Cumulative packet size per connected master and slave (bytes)
system.iobus.pkt_size_system.pc.south_bridge.io_apic.int_master::total          392                       # Cumulative packet size per connected master and slave (bytes)
system.iobus.pkt_size_system.ruby.l1_cntrl0.sequencer.mem-master-port::system.pc.south_bridge.ide.pio          604                       # Cumulative packet size per connected master and slave (bytes)
system.iobus.pkt_size_system.ruby.l1_cntrl0.sequencer.mem-master-port::system.pc.south_bridge.io_apic.pio           12                       # Cumulative packet size per connected master and slave (bytes)
system.iobus.pkt_size_system.ruby.l1_cntrl0.sequencer.mem-master-port::system.pc.com_1.pio           11                       # Cumulative packet size per connected master and slave (bytes)
system.iobus.pkt_size_system.ruby.l1_cntrl0.sequencer.mem-master-port::system.ruby.l1_cntrl0.sequencer.pio-slave-port         3096                       # Cumulative packet size per connected master and slave (bytes)
system.iobus.pkt_size_system.ruby.l1_cntrl0.sequencer.mem-master-port::system.ruby.l1_cntrl1.sequencer.pio-slave-port            4                       # Cumulative packet size per connected master and slave (bytes)
system.iobus.pkt_size_system.ruby.l1_cntrl0.sequencer.mem-master-port::total         3727                       # Cumulative packet size per connected master and slave (bytes)
system.iobus.pkt_size_system.ruby.l1_cntrl1.sequencer.mem-master-port::system.pc.south_bridge.ide.pio          678                       # Cumulative packet size per connected master and slave (bytes)
system.iobus.pkt_size_system.ruby.l1_cntrl1.sequencer.mem-master-port::system.pc.south_bridge.io_apic.pio           28                       # Cumulative packet size per connected master and slave (bytes)
system.iobus.pkt_size_system.ruby.l1_cntrl1.sequencer.mem-master-port::system.pc.com_1.pio           81                       # Cumulative packet size per connected master and slave (bytes)
system.iobus.pkt_size_system.ruby.l1_cntrl1.sequencer.mem-master-port::system.ruby.l1_cntrl0.sequencer.pio-slave-port            8                       # Cumulative packet size per connected master and slave (bytes)
system.iobus.pkt_size_system.ruby.l1_cntrl1.sequencer.mem-master-port::system.ruby.l1_cntrl1.sequencer.pio-slave-port         3116                       # Cumulative packet size per connected master and slave (bytes)
system.iobus.pkt_size_system.ruby.l1_cntrl1.sequencer.mem-master-port::system.ruby.l1_cntrl2.sequencer.pio-slave-port            4                       # Cumulative packet size per connected master and slave (bytes)
system.iobus.pkt_size_system.ruby.l1_cntrl1.sequencer.mem-master-port::total         3915                       # Cumulative packet size per connected master and slave (bytes)
system.iobus.pkt_size_system.ruby.l1_cntrl2.sequencer.mem-master-port::system.pc.south_bridge.ide.pio          558                       # Cumulative packet size per connected master and slave (bytes)
system.iobus.pkt_size_system.ruby.l1_cntrl2.sequencer.mem-master-port::system.pc.south_bridge.io_apic.pio           16                       # Cumulative packet size per connected master and slave (bytes)
system.iobus.pkt_size_system.ruby.l1_cntrl2.sequencer.mem-master-port::system.ruby.l1_cntrl0.sequencer.pio-slave-port            4                       # Cumulative packet size per connected master and slave (bytes)
system.iobus.pkt_size_system.ruby.l1_cntrl2.sequencer.mem-master-port::system.ruby.l1_cntrl2.sequencer.pio-slave-port         3096                       # Cumulative packet size per connected master and slave (bytes)
system.iobus.pkt_size_system.ruby.l1_cntrl2.sequencer.mem-master-port::system.ruby.l1_cntrl3.sequencer.pio-slave-port            4                       # Cumulative packet size per connected master and slave (bytes)
system.iobus.pkt_size_system.ruby.l1_cntrl2.sequencer.mem-master-port::total         3678                       # Cumulative packet size per connected master and slave (bytes)
system.iobus.pkt_size_system.ruby.l1_cntrl3.sequencer.mem-master-port::system.pc.south_bridge.ide.pio          578                       # Cumulative packet size per connected master and slave (bytes)
system.iobus.pkt_size_system.ruby.l1_cntrl3.sequencer.mem-master-port::system.pc.south_bridge.io_apic.pio           16                       # Cumulative packet size per connected master and slave (bytes)
system.iobus.pkt_size_system.ruby.l1_cntrl3.sequencer.mem-master-port::system.ruby.l1_cntrl0.sequencer.pio-slave-port            4                       # Cumulative packet size per connected master and slave (bytes)
system.iobus.pkt_size_system.ruby.l1_cntrl3.sequencer.mem-master-port::system.ruby.l1_cntrl1.sequencer.pio-slave-port            8                       # Cumulative packet size per connected master and slave (bytes)
system.iobus.pkt_size_system.ruby.l1_cntrl3.sequencer.mem-master-port::system.ruby.l1_cntrl2.sequencer.pio-slave-port            4                       # Cumulative packet size per connected master and slave (bytes)
system.iobus.pkt_size_system.ruby.l1_cntrl3.sequencer.mem-master-port::system.ruby.l1_cntrl3.sequencer.pio-slave-port         3120                       # Cumulative packet size per connected master and slave (bytes)
system.iobus.pkt_size_system.ruby.l1_cntrl3.sequencer.mem-master-port::total         3730                       # Cumulative packet size per connected master and slave (bytes)
system.iobus.pkt_size::total                    15442                       # Cumulative packet size per connected master and slave (bytes)
system.iobus.reqLayer2.occupancy              3700000                       # Layer occupancy (ticks)
system.iobus.reqLayer2.utilization                0.0                       # Layer utilization (%)
system.iobus.reqLayer8.occupancy                30996                       # Layer occupancy (ticks)
system.iobus.reqLayer8.utilization                0.0                       # Layer utilization (%)
system.iobus.reqLayer12.occupancy              117500                       # Layer occupancy (ticks)
system.iobus.reqLayer12.utilization               0.0                       # Layer utilization (%)
system.iobus.reqLayer17.occupancy             1985964                       # Layer occupancy (ticks)
system.iobus.reqLayer17.utilization               0.0                       # Layer utilization (%)
system.iobus.reqLayer18.occupancy             2096113                       # Layer occupancy (ticks)
system.iobus.reqLayer18.utilization               0.0                       # Layer utilization (%)
system.iobus.reqLayer19.occupancy             1987476                       # Layer occupancy (ticks)
system.iobus.reqLayer19.utilization               0.0                       # Layer utilization (%)
system.iobus.reqLayer20.occupancy             2086627                       # Layer occupancy (ticks)
system.iobus.reqLayer20.utilization               0.0                       # Layer utilization (%)
system.iobus.respLayer0.occupancy              172907                       # Layer occupancy (ticks)
system.iobus.respLayer0.utilization               0.0                       # Layer utilization (%)
system.iobus.respLayer2.occupancy             1909000                       # Layer occupancy (ticks)
system.iobus.respLayer2.utilization               0.0                       # Layer utilization (%)
system.iobus.respLayer4.occupancy             2121500                       # Layer occupancy (ticks)
system.iobus.respLayer4.utilization               0.0                       # Layer utilization (%)
system.iobus.respLayer6.occupancy             1842000                       # Layer occupancy (ticks)
system.iobus.respLayer6.utilization               0.0                       # Layer utilization (%)
system.iobus.respLayer8.occupancy             1876000                       # Layer occupancy (ticks)
system.iobus.respLayer8.utilization               0.0                       # Layer utilization (%)
system.pc.south_bridge.ide.disks.dma_read_full_pages         1432                       # Number of full page size DMA reads (not PRD).
system.pc.south_bridge.ide.disks.dma_read_bytes      5865472                       # Number of bytes transfered via DMA reads (not PRD).
system.pc.south_bridge.ide.disks.dma_read_txs         1432                       # Number of DMA read transactions (not PRD).
system.pc.south_bridge.ide.disks.dma_write_full_pages           45                       # Number of full page size DMA writes.
system.pc.south_bridge.ide.disks.dma_write_bytes       184320                       # Number of bytes transfered via DMA writes.
system.pc.south_bridge.ide.disks.dma_write_txs           45                       # Number of DMA write transactions.
system.ruby.clk_domain.clock                      500                       # Clock period in ticks
system.ruby.outstanding_req_hist_seqr::bucket_size            1                      
system.ruby.outstanding_req_hist_seqr::max_bucket            9                      
system.ruby.outstanding_req_hist_seqr::samples   2881806075                      
system.ruby.outstanding_req_hist_seqr::mean     1.000000                      
system.ruby.outstanding_req_hist_seqr::gmean     1.000000                      
system.ruby.outstanding_req_hist_seqr::stdev     0.000271                      
system.ruby.outstanding_req_hist_seqr    |           0      0.00%      0.00% |  2881805864    100.00%    100.00% |         211      0.00%    100.00% |           0      0.00%    100.00% |           0      0.00%    100.00% |           0      0.00%    100.00% |           0      0.00%    100.00% |           0      0.00%    100.00% |           0      0.00%    100.00% |           0      0.00%    100.00%
system.ruby.outstanding_req_hist_seqr::total   2881806075                      
[...]
system.ruby.L1Cache_Controller.O.Store   |          29      8.81%      8.81% |         141     42.86%     51.67% |         128     38.91%     90.58% |          31      9.42%    100.00%
system.ruby.L1Cache_Controller.O.Store::total          329                      
system.ruby.L1Cache_Controller.O.L1_Replacement |         199     15.92%     15.92% |         382     30.56%     46.48% |         395     31.60%     78.08% |         274     21.92%    100.00%
system.ruby.L1Cache_Controller.O.L1_Replacement::total         1250                      
system.ruby.L1Cache_Controller.O.Fwd_GETX |        2526     17.95%     17.95% |        1901     13.51%     31.46% |        7974     56.66%     88.11% |        1673     11.89%    100.00%
system.ruby.L1Cache_Controller.O.Fwd_GETX::total        14074                      
system.ruby.L1Cache_Controller.O.Fwd_GETS |       29024     73.72%     73.72% |        1525      3.87%     77.60% |        7843     19.92%     97.52% |         976      2.48%    100.00%
system.ruby.L1Cache_Controller.O.Fwd_GETS::total        39368                      
system.ruby.L1Cache_Controller.M.Load    |       72561      2.47%      2.47% |     1383829     47.10%     49.57% |       76070      2.59%     52.15% |     1405880     47.85%    100.00%
system.ruby.L1Cache_Controller.M.Load::total      2938340                      
system.ruby.L1Cache_Controller.M.Store   |        3401      2.61%      2.61% |       70643     54.14%     56.74% |        3909      3.00%     59.74% |       52534     40.26%    100.00%
system.ruby.L1Cache_Controller.M.Store::total       130487                      
system.ruby.L1Cache_Controller.M.L1_Replacement |       10038      1.37%      1.37% |      338015     46.11%     47.48% |        4443      0.61%     48.09% |      380533     51.91%    100.00%
system.ruby.L1Cache_Controller.M.L1_Replacement::total       733029                      
system.ruby.L1Cache_Controller.M.Fwd_GETX |         374     22.01%     22.01% |         256     15.07%     37.08% |         809     47.62%     84.70% |         260     15.30%    100.00%
system.ruby.L1Cache_Controller.M.Fwd_GETX::total         1699                      
system.ruby.L1Cache_Controller.M.Fwd_GETS |        2758     17.66%     17.66% |        2371     15.18%     32.84% |        8518     54.54%     87.37% |        1972     12.63%    100.00%
system.ruby.L1Cache_Controller.M.Fwd_GETS::total        15619                      
system.ruby.L1Cache_Controller.M_W.Load  |       18398      5.50%      5.50% |      170646     51.02%     56.52% |       12416      3.71%     60.23% |      133016     39.77%    100.00%
system.ruby.L1Cache_Controller.M_W.Load::total       334476                      
system.ruby.L1Cache_Controller.M_W.Store |        1009      1.09%      1.09% |       51762     56.07%     57.17% |        1892      2.05%     59.22% |       37647     40.78%    100.00%
system.ruby.L1Cache_Controller.M_W.Store::total        92310                      
system.ruby.L1Cache_Controller.M_W.L1_Replacement |           5     31.25%     31.25% |           8     50.00%     81.25% |           0      0.00%     81.25% |           3     18.75%    100.00%
system.ruby.L1Cache_Controller.M_W.L1_Replacement::total           16                      
system.ruby.L1Cache_Controller.M_W.Fwd_GETX |           0      0.00%      0.00% |          22     20.37%     20.37% |          81     75.00%     95.37% |           5      4.63%    100.00%
system.ruby.L1Cache_Controller.M_W.Fwd_GETX::total          108                      
system.ruby.L1Cache_Controller.M_W.Fwd_GETS |          15      2.20%      2.20% |         311     45.67%     47.87% |         321     47.14%     95.01% |          34      4.99%    100.00%
system.ruby.L1Cache_Controller.M_W.Fwd_GETS::total          681                      
system.ruby.L1Cache_Controller.M_W.Use_Timeout |       16680      1.89%      1.89% |      411291     46.69%     48.58% |       17570      1.99%     50.58% |      435409     49.42%    100.00%
system.ruby.L1Cache_Controller.M_W.Use_Timeout::total       880950                      
system.ruby.L1Cache_Controller.MM.Load   |     7724849      3.76%      3.76% |    97839847     47.60%     51.36% |      878695      0.43%     51.79% |    99090916     48.21%    100.00%
system.ruby.L1Cache_Controller.MM.Load::total    205534307                      
system.ruby.L1Cache_Controller.MM.Store  |     6743935      3.95%      3.95% |    81721528     47.86%     51.81% |      887999      0.52%     52.33% |    81391653     47.67%    100.00%
system.ruby.L1Cache_Controller.MM.Store::total    170745115                      
system.ruby.L1Cache_Controller.MM.L1_Replacement |       16743      1.84%      1.84% |      470741     51.65%     53.48% |       17973      1.97%     55.46% |      406003     44.54%    100.00%
system.ruby.L1Cache_Controller.MM.L1_Replacement::total       911460                      
system.ruby.L1Cache_Controller.MM.Fwd_GETX |        1391     18.72%     18.72% |        2386     32.10%     50.82% |        2135     28.73%     79.55% |        1520     20.45%    100.00%
system.ruby.L1Cache_Controller.MM.Fwd_GETX::total         7432                      
system.ruby.L1Cache_Controller.MM.Fwd_GETS |        7211     35.28%     35.28% |        4651     22.75%     58.03% |        4565     22.33%     80.36% |        4015     19.64%    100.00%
system.ruby.L1Cache_Controller.MM.Fwd_GETS::total        20442                      
system.ruby.L1Cache_Controller.MM.Fwd_DMA |         237     25.46%     25.46% |         366     39.31%     64.77% |         185     19.87%     84.64% |         143     15.36%    100.00%
system.ruby.L1Cache_Controller.MM.Fwd_DMA::total          931                      
system.ruby.L1Cache_Controller.MM_W.Load |        1634      1.09%      1.09% |       81717     54.56%     55.65% |        2682      1.79%     57.44% |       63746     42.56%    100.00%
system.ruby.L1Cache_Controller.MM_W.Load::total       149779                      
system.ruby.L1Cache_Controller.MM_W.Store |       60055      4.20%      4.20% |      683724     47.85%     52.05% |       78197      5.47%     57.52% |      606989     42.48%    100.00%
system.ruby.L1Cache_Controller.MM_W.Store::total      1428965                      
system.ruby.L1Cache_Controller.MM_W.L1_Replacement |           0      0.00%      0.00% |           0      0.00%      0.00% |           2     50.00%     50.00% |           2     50.00%    100.00%
system.ruby.L1Cache_Controller.MM_W.L1_Replacement::total            4                      
system.ruby.L1Cache_Controller.MM_W.Fwd_GETX |           2      4.44%      4.44% |           4      8.89%     13.33% |          34     75.56%     88.89% |           5     11.11%    100.00%
system.ruby.L1Cache_Controller.MM_W.Fwd_GETX::total           45                      
system.ruby.L1Cache_Controller.MM_W.Fwd_GETS |         825     25.63%     25.63% |         572     17.77%     43.40% |         959     29.79%     73.19% |         863     26.81%    100.00%
system.ruby.L1Cache_Controller.MM_W.Fwd_GETS::total         3219                      
system.ruby.L1Cache_Controller.MM_W.Use_Timeout |       21679      2.68%      2.68% |      407412     50.37%     53.05% |       20461      2.53%     55.58% |      359301     44.42%    100.00%
system.ruby.L1Cache_Controller.MM_W.Use_Timeout::total       808853                      
system.ruby.L1Cache_Controller.IM.Ack    |        7045     36.46%     36.46% |        4909     25.40%     61.86% |        3908     20.22%     82.08% |        3462     17.92%    100.00%
system.ruby.L1Cache_Controller.IM.Ack::total        19324                      
system.ruby.L1Cache_Controller.IM.Exclusive_Data |       16266      2.35%      2.35% |      344514     49.72%     52.07% |       15903      2.30%     54.36% |      316258     45.64%    100.00%
system.ruby.L1Cache_Controller.IM.Exclusive_Data::total       692941                      
system.ruby.L1Cache_Controller.SM.Ack    |        7455     54.40%     54.40% |        2276     16.61%     71.01% |        1869     13.64%     84.65% |        2103     15.35%    100.00%
system.ruby.L1Cache_Controller.SM.Ack::total        13703                      
system.ruby.L1Cache_Controller.SM.Exclusive_Data |        4375     18.80%     18.80% |       10995     47.24%     66.04% |        2538     10.91%     76.95% |        5365     23.05%    100.00%
system.ruby.L1Cache_Controller.SM.Exclusive_Data::total        23273                      
system.ruby.L1Cache_Controller.OM.Own_GETX |          29      8.81%      8.81% |         141     42.86%     51.67% |         128     38.91%     90.58% |          31      9.42%    100.00%
system.ruby.L1Cache_Controller.OM.Own_GETX::total          329                      
system.ruby.L1Cache_Controller.OM.Ack    |         171      7.79%      7.79% |         910     41.44%     49.23% |         673     30.65%     79.87% |         442     20.13%    100.00%
system.ruby.L1Cache_Controller.OM.Ack::total         2196                      
system.ruby.L1Cache_Controller.OM.All_acks |       20670      2.88%      2.88% |      355650     49.63%     52.52% |       18569      2.59%     55.11% |      321654     44.89%    100.00%
system.ruby.L1Cache_Controller.OM.All_acks::total       716543                      
system.ruby.L1Cache_Controller.IS.Data   |      185225      1.68%      1.68% |     5680482     51.46%     53.14% |       67641      0.61%     53.76% |     5104273     46.24%    100.00%
system.ruby.L1Cache_Controller.IS.Data::total     11037621                      
system.ruby.L1Cache_Controller.IS.Exclusive_Data |       17689      1.82%      1.82% |      463053     47.58%     49.40% |       19462      2.00%     51.39% |      473056     48.61%    100.00%
system.ruby.L1Cache_Controller.IS.Exclusive_Data::total       973260                      
system.ruby.L1Cache_Controller.SI.Load   |           0      0.00%      0.00% |         293     42.46%     42.46% |         106     15.36%     57.83% |         291     42.17%    100.00%
system.ruby.L1Cache_Controller.SI.Load::total          690                      
system.ruby.L1Cache_Controller.SI.Ifetch |           0      0.00%      0.00% |           8    100.00%    100.00% |           0      0.00%    100.00% |           0      0.00%    100.00%
system.ruby.L1Cache_Controller.SI.Ifetch::total            8                      
system.ruby.L1Cache_Controller.SI.Writeback_Ack |      175858      1.61%      1.61% |     5614662     51.36%     52.97% |       60373      0.55%     53.53% |     5080226     46.47%    100.00%
system.ruby.L1Cache_Controller.SI.Writeback_Ack::total     10931119                      
system.ruby.L1Cache_Controller.SI.Writeback_Ack_Data |        2740      3.85%      3.85% |       50212     70.62%     74.47% |        3642      5.12%     79.59% |       14510     20.41%    100.00%
system.ruby.L1Cache_Controller.SI.Writeback_Ack_Data::total        71104                      
system.ruby.L1Cache_Controller.OI.Writeback_Ack_Data |         199     15.92%     15.92% |         382     30.56%     46.48% |         395     31.60%     78.08% |         274     21.92%    100.00%
system.ruby.L1Cache_Controller.OI.Writeback_Ack_Data::total         1250                      
system.ruby.L1Cache_Controller.MI.Load   |           1      2.78%      2.78% |          35     97.22%    100.00% |           0      0.00%    100.00% |           0      0.00%    100.00%
system.ruby.L1Cache_Controller.MI.Load::total           36                      
system.ruby.L1Cache_Controller.MI.Writeback_Ack_Data |       26781      1.63%      1.63% |      808756     49.18%     50.81% |       22416      1.36%     52.17% |      786536     47.83%    100.00%
system.ruby.L1Cache_Controller.MI.Writeback_Ack_Data::total      1644489                      
system.ruby.L2Cache_Controller.L1_GETS       12011340      0.00%      0.00%
system.ruby.L2Cache_Controller.L1_GETX         716560      0.00%      0.00%
system.ruby.L2Cache_Controller.L1_PUTO           1250      0.00%      0.00%
system.ruby.L2Cache_Controller.L1_PUTX        1644489      0.00%      0.00%
system.ruby.L2Cache_Controller.L1_PUTS_only     10533241      0.00%      0.00%
system.ruby.L2Cache_Controller.L1_PUTS         468988      0.00%      0.00%
system.ruby.L2Cache_Controller.Fwd_GETX           192      0.00%      0.00%
system.ruby.L2Cache_Controller.Fwd_DMA           1259      0.00%      0.00%
system.ruby.L2Cache_Controller.Inv                103      0.00%      0.00%
system.ruby.L2Cache_Controller.All_Acks         40539      0.00%      0.00%
system.ruby.L2Cache_Controller.Data            124326      0.00%      0.00%
system.ruby.L2Cache_Controller.Data_Exclusive           39      0.00%      0.00%
system.ruby.L2Cache_Controller.L1_WBCLEANDATA        71104      0.00%      0.00%
system.ruby.L2Cache_Controller.L1_WBDIRTYDATA      1645739      0.00%      0.00%
system.ruby.L2Cache_Controller.Writeback_Ack        19201      0.00%      0.00%
system.ruby.L2Cache_Controller.Unblock       21968740      0.00%      0.00%
system.ruby.L2Cache_Controller.Exclusive_Unblock      1689803      0.00%      0.00%
system.ruby.L2Cache_Controller.DmaAck             931      0.00%      0.00%
system.ruby.L2Cache_Controller.L2_Replacement        57808      0.00%      0.00%
system.ruby.L2Cache_Controller.NP.L1_GETS        83780      0.00%      0.00%
system.ruby.L2Cache_Controller.NP.L1_GETX        23257      0.00%      0.00%
system.ruby.L2Cache_Controller.NP.Inv               2      0.00%      0.00%
system.ruby.L2Cache_Controller.I.L1_GETS            7      0.00%      0.00%
system.ruby.L2Cache_Controller.ILS.L1_GETS         2051      0.00%      0.00%
system.ruby.L2Cache_Controller.ILS.L1_GETX        13342      0.00%      0.00%
system.ruby.L2Cache_Controller.ILS.L1_PUTS_only        69515      0.00%      0.00%
system.ruby.L2Cache_Controller.ILS.L1_PUTS         1589      0.00%      0.00%
system.ruby.L2Cache_Controller.ILX.L1_GETS        36061      0.00%      0.00%
system.ruby.L2Cache_Controller.ILX.L1_GETX         9131      0.00%      0.00%
system.ruby.L2Cache_Controller.ILX.L1_PUTX      1644489      0.00%      0.00%
system.ruby.L2Cache_Controller.ILX.Fwd_DMA          931      0.00%      0.00%
system.ruby.L2Cache_Controller.ILOX.L1_GETS        31554      0.00%      0.00%
system.ruby.L2Cache_Controller.ILOX.L1_GETX          808      0.00%      0.00%
system.ruby.L2Cache_Controller.ILOX.L1_PUTO          628      0.00%      0.00%
system.ruby.L2Cache_Controller.ILOX.Fwd_GETX           39      0.00%      0.00%
system.ruby.L2Cache_Controller.ILOSX.L1_GETS         7814      0.00%      0.00%
system.ruby.L2Cache_Controller.ILOSX.L1_GETX        13556      0.00%      0.00%
system.ruby.L2Cache_Controller.ILOSX.L1_PUTO          622      0.00%      0.00%
system.ruby.L2Cache_Controller.ILOSX.L1_PUTS_only        33054      0.00%      0.00%
system.ruby.L2Cache_Controller.ILOSX.L1_PUTS         1980      0.00%      0.00%
system.ruby.L2Cache_Controller.S.L1_GETS     10431401      0.00%      0.00%
system.ruby.L2Cache_Controller.S.L1_GETX         2316      0.00%      0.00%
system.ruby.L2Cache_Controller.S.Inv              101      0.00%      0.00%
system.ruby.L2Cache_Controller.S.L2_Replacement        38073      0.00%      0.00%
system.ruby.L2Cache_Controller.OLSX.L1_GETS         7643      0.00%      0.00%
system.ruby.L2Cache_Controller.OLSX.L1_GETX          194      0.00%      0.00%
system.ruby.L2Cache_Controller.OLSX.L1_PUTS_only          423      0.00%      0.00%
system.ruby.L2Cache_Controller.OLSX.L1_PUTS         7542      0.00%      0.00%
system.ruby.L2Cache_Controller.OLSX.L2_Replacement           46      0.00%      0.00%
system.ruby.L2Cache_Controller.SLS.L1_GETS       457752      0.00%      0.00%
system.ruby.L2Cache_Controller.SLS.L1_GETX         1624      0.00%      0.00%
system.ruby.L2Cache_Controller.SLS.L1_PUTS_only     10430247      0.00%      0.00%
system.ruby.L2Cache_Controller.SLS.L1_PUTS       457873      0.00%      0.00%
system.ruby.L2Cache_Controller.SLS.L2_Replacement          534      0.00%      0.00%
system.ruby.L2Cache_Controller.M.L1_GETS       952818      0.00%      0.00%
system.ruby.L2Cache_Controller.M.L1_GETX       652315      0.00%      0.00%
system.ruby.L2Cache_Controller.M.Fwd_GETX          153      0.00%      0.00%
system.ruby.L2Cache_Controller.M.Fwd_DMA          328      0.00%      0.00%
system.ruby.L2Cache_Controller.M.L2_Replacement        19155      0.00%      0.00%
system.ruby.L2Cache_Controller.IFGX.Data_Exclusive           39      0.00%      0.00%
system.ruby.L2Cache_Controller.ILOXW.L1_WBDIRTYDATA          628      0.00%      0.00%
system.ruby.L2Cache_Controller.ILOXW.Unblock        33054      0.00%      0.00%
system.ruby.L2Cache_Controller.ILOSXW.L1_PUTS_only            2      0.00%      0.00%
system.ruby.L2Cache_Controller.ILOSXW.L1_WBDIRTYDATA          622      0.00%      0.00%
system.ruby.L2Cache_Controller.ILOSXW.Unblock         1980      0.00%      0.00%
system.ruby.L2Cache_Controller.SLSW.L1_PUTS            4      0.00%      0.00%
system.ruby.L2Cache_Controller.SLSW.Unblock       457873      0.00%      0.00%
system.ruby.L2Cache_Controller.ILSW.L1_WBCLEANDATA         1589      0.00%      0.00%
system.ruby.L2Cache_Controller.IW.L1_WBCLEANDATA        69515      0.00%      0.00%
system.ruby.L2Cache_Controller.SW.L1_GETS            2      0.00%      0.00%
system.ruby.L2Cache_Controller.SW.Unblock     10430247      0.00%      0.00%
system.ruby.L2Cache_Controller.OXW.Unblock          423      0.00%      0.00%
system.ruby.L2Cache_Controller.OLSXW.Unblock         7542      0.00%      0.00%
system.ruby.L2Cache_Controller.ILXW.L1_GETS            1      0.00%      0.00%
system.ruby.L2Cache_Controller.ILXW.L1_WBDIRTYDATA      1644489      0.00%      0.00%
system.ruby.L2Cache_Controller.IFLS.Unblock         2051      0.00%      0.00%
system.ruby.L2Cache_Controller.IFLOX.Unblock        31554      0.00%      0.00%
system.ruby.L2Cache_Controller.IFLOX.Exclusive_Unblock          194      0.00%      0.00%
system.ruby.L2Cache_Controller.IFLOXX.L1_GETS          267      0.00%      0.00%
system.ruby.L2Cache_Controller.IFLOXX.L1_GETX           17      0.00%      0.00%
system.ruby.L2Cache_Controller.IFLOXX.Unblock        15619      0.00%      0.00%
system.ruby.L2Cache_Controller.IFLOXX.Exclusive_Unblock        30381      0.00%      0.00%
system.ruby.L2Cache_Controller.IFLOSX.Unblock         7814      0.00%      0.00%
system.ruby.L2Cache_Controller.IFLXO.L1_GETS          183      0.00%      0.00%
system.ruby.L2Cache_Controller.IFLXO.Exclusive_Unblock        13556      0.00%      0.00%
system.ruby.L2Cache_Controller.IGS.Data         83787      0.00%      0.00%
system.ruby.L2Cache_Controller.IGS.Unblock        83787      0.00%      0.00%
system.ruby.L2Cache_Controller.IGM.Data         25573      0.00%      0.00%
system.ruby.L2Cache_Controller.IGMLS.Data        14966      0.00%      0.00%
system.ruby.L2Cache_Controller.IGMO.All_Acks        40539      0.00%      0.00%
system.ruby.L2Cache_Controller.IGMO.Exclusive_Unblock        40539      0.00%      0.00%
system.ruby.L2Cache_Controller.MM.Exclusive_Unblock       652315      0.00%      0.00%
system.ruby.L2Cache_Controller.SS.L1_GETS            2      0.00%      0.00%
system.ruby.L2Cache_Controller.SS.Unblock     10431401      0.00%      0.00%
system.ruby.L2Cache_Controller.OO.Exclusive_Unblock       952818      0.00%      0.00%
system.ruby.L2Cache_Controller.OLSXS.Unblock         7643      0.00%      0.00%
system.ruby.L2Cache_Controller.SLSS.L1_GETS            4      0.00%      0.00%
system.ruby.L2Cache_Controller.SLSS.Unblock       457752      0.00%      0.00%
system.ruby.L2Cache_Controller.MI.Writeback_Ack        19155      0.00%      0.00%
system.ruby.L2Cache_Controller.OLSI.Writeback_Ack           46      0.00%      0.00%
system.ruby.L2Cache_Controller.ILXD.DmaAck          931      0.00%      0.00%

---------- End Simulation Statistics   ----------
