
---------- Begin Simulation Statistics ----------
sim_seconds                                  1.207417                       # Number of seconds simulated
sim_ticks                                1207417016000                       # Number of ticks simulated
final_tick                               53631184162001                       # Number of ticks from beginning of simulation (restored from checkpoints and never reset)
sim_freq                                 1000000000000                       # Frequency of simulated ticks
host_inst_rate                                 126343                       # Simulator instruction rate (inst/s)
host_op_rate                                   169046                       # Simulator op (including micro ops) rate (op/s)
host_tick_rate                              281689034                       # Simulator tick rate (ticks/s)
host_mem_usage                                1796932                       # Number of bytes of host memory used
host_seconds                                  4286.35                       # Real time elapsed on the host
sim_insts                                   541550386                       # Number of instructions simulated
sim_ops                                     724591625                       # Number of ops (including micro ops) simulated
system.voltage_domain.voltage                       1                       # Voltage in Volts
system.clk_domain.clock                          1000                       # Clock period in ticks
system.mem_ctrls.bytes_read::ruby.dir_cntrl0    175086784                       # Number of bytes read from this memory
system.mem_ctrls.bytes_read::total          175086784                       # Number of bytes read from this memory
system.mem_ctrls.bytes_written::ruby.dir_cntrl0    103576832                       # Number of bytes written to this memory
system.mem_ctrls.bytes_written::total       103576832                       # Number of bytes written to this memory
system.mem_ctrls.num_reads::ruby.dir_cntrl0      2735731                       # Number of read requests responded to by this memory
system.mem_ctrls.num_reads::total             2735731                       # Number of read requests responded to by this memory
system.mem_ctrls.num_writes::ruby.dir_cntrl0      1618388                       # Number of write requests responded to by this memory
system.mem_ctrls.num_writes::total            1618388                       # Number of write requests responded to by this memory
system.mem_ctrls.bw_read::ruby.dir_cntrl0    145009373                       # Total read bandwidth from this memory (bytes/s)
system.mem_ctrls.bw_read::total             145009373                       # Total read bandwidth from this memory (bytes/s)
system.mem_ctrls.bw_write::ruby.dir_cntrl0     85783810                       # Write bandwidth from this memory (bytes/s)
system.mem_ctrls.bw_write::total             85783810                       # Write bandwidth from this memory (bytes/s)
system.mem_ctrls.bw_total::ruby.dir_cntrl0    230793183                       # Total bandwidth to/from this memory (bytes/s)
system.mem_ctrls.bw_total::total            230793183                       # Total bandwidth to/from this memory (bytes/s)
system.mem_ctrls.readReqs                     2735731                       # Number of read requests accepted
system.mem_ctrls.writeReqs                    1618388                       # Number of write requests accepted
system.mem_ctrls.readBursts                   2735731                       # Number of DRAM read bursts, including those serviced by the write queue
system.mem_ctrls.writeBursts                  1618388                       # Number of DRAM write bursts, including those merged in the write queue
system.mem_ctrls.bytesReadDRAM              175014208                       # Total number of bytes read from DRAM
system.mem_ctrls.bytesReadWrQ                   72576                       # Total number of bytes read from write queue
system.mem_ctrls.bytesWritten               103577152                       # Total number of bytes written to DRAM
system.mem_ctrls.bytesReadSys               175086784                       # Total read bytes from the system interface side
system.mem_ctrls.bytesWrittenSys            103576832                       # Total written bytes from the system interface side
system.mem_ctrls.servicedByWrQ                   1134                       # Number of DRAM read bursts serviced by the write queue
system.mem_ctrls.mergedWrBursts                     0                       # Number of DRAM write bursts merged with an existing one
system.mem_ctrls.neitherReadNorWriteReqs            0                       # Number of requests that are neither read nor write
system.mem_ctrls.perBankRdBursts::0            174393                       # Per bank write bursts
system.mem_ctrls.perBankRdBursts::1            175149                       # Per bank write bursts
system.mem_ctrls.perBankRdBursts::2            168138                       # Per bank write bursts
system.mem_ctrls.perBankRdBursts::3            169888                       # Per bank write bursts
system.mem_ctrls.perBankRdBursts::4            170536                       # Per bank write bursts
system.mem_ctrls.perBankRdBursts::5            169166                       # Per bank write bursts
system.mem_ctrls.perBankRdBursts::6            178310                       # Per bank write bursts
system.mem_ctrls.perBankRdBursts::7            168764                       # Per bank write bursts
system.mem_ctrls.perBankRdBursts::8            172166                       # Per bank write bursts
system.mem_ctrls.perBankRdBursts::9            169200                       # Per bank write bursts
system.mem_ctrls.perBankRdBursts::10           168727                       # Per bank write bursts
system.mem_ctrls.perBankRdBursts::11           166885                       # Per bank write bursts
system.mem_ctrls.perBankRdBursts::12           169146                       # Per bank write bursts
system.mem_ctrls.perBankRdBursts::13           170525                       # Per bank write bursts
system.mem_ctrls.perBankRdBursts::14           169944                       # Per bank write bursts
system.mem_ctrls.perBankRdBursts::15           173660                       # Per bank write bursts
system.mem_ctrls.perBankWrBursts::0            101814                       # Per bank write bursts
system.mem_ctrls.perBankWrBursts::1            105847                       # Per bank write bursts
system.mem_ctrls.perBankWrBursts::2            100349                       # Per bank write bursts
system.mem_ctrls.perBankWrBursts::3            100183                       # Per bank write bursts
system.mem_ctrls.perBankWrBursts::4             98512                       # Per bank write bursts
system.mem_ctrls.perBankWrBursts::5            100375                       # Per bank write bursts
system.mem_ctrls.perBankWrBursts::6            105786                       # Per bank write bursts
system.mem_ctrls.perBankWrBursts::7            100660                       # Per bank write bursts
system.mem_ctrls.perBankWrBursts::8            102884                       # Per bank write bursts
system.mem_ctrls.perBankWrBursts::9            100682                       # Per bank write bursts
system.mem_ctrls.perBankWrBursts::10           100529                       # Per bank write bursts
system.mem_ctrls.perBankWrBursts::11            99832                       # Per bank write bursts
system.mem_ctrls.perBankWrBursts::12           101002                       # Per bank write bursts
system.mem_ctrls.perBankWrBursts::13           101073                       # Per bank write bursts
system.mem_ctrls.perBankWrBursts::14            99105                       # Per bank write bursts
system.mem_ctrls.perBankWrBursts::15            99760                       # Per bank write bursts
system.mem_ctrls.numRdRetry                         0                       # Number of times read queue was full causing retry
system.mem_ctrls.numWrRetry                         0                       # Number of times write queue was full causing retry
system.mem_ctrls.totGap                  1207416929500                       # Total gap between requests
system.mem_ctrls.readPktSize::0                     0                       # Read request sizes (log2)
system.mem_ctrls.readPktSize::1                     0                       # Read request sizes (log2)
system.mem_ctrls.readPktSize::2                     0                       # Read request sizes (log2)
system.mem_ctrls.readPktSize::3                     0                       # Read request sizes (log2)
system.mem_ctrls.readPktSize::4                     0                       # Read request sizes (log2)
system.mem_ctrls.readPktSize::5                     0                       # Read request sizes (log2)
system.mem_ctrls.readPktSize::6               2735731                       # Read request sizes (log2)
system.mem_ctrls.writePktSize::0                    0                       # Write request sizes (log2)
system.mem_ctrls.writePktSize::1                    0                       # Write request sizes (log2)
system.mem_ctrls.writePktSize::2                    0                       # Write request sizes (log2)
system.mem_ctrls.writePktSize::3                    0                       # Write request sizes (log2)
system.mem_ctrls.writePktSize::4                    0                       # Write request sizes (log2)
system.mem_ctrls.writePktSize::5                    0                       # Write request sizes (log2)
system.mem_ctrls.writePktSize::6              1618388                       # Write request sizes (log2)
system.mem_ctrls.rdQLenPdf::0                 2719586                       # What read queue length does an incoming req see
system.mem_ctrls.rdQLenPdf::1                   14985                       # What read queue length does an incoming req see
system.mem_ctrls.rdQLenPdf::2                      26                       # What read queue length does an incoming req see
system.mem_ctrls.rdQLenPdf::3                       0                       # What read queue length does an incoming req see
system.mem_ctrls.rdQLenPdf::4                       0                       # What read queue length does an incoming req see
system.mem_ctrls.rdQLenPdf::5                       0                       # What read queue length does an incoming req see
system.mem_ctrls.rdQLenPdf::6                       0                       # What read queue length does an incoming req see
system.mem_ctrls.rdQLenPdf::7                       0                       # What read queue length does an incoming req see
system.mem_ctrls.rdQLenPdf::8                       0                       # What read queue length does an incoming req see
system.mem_ctrls.rdQLenPdf::9                       0                       # What read queue length does an incoming req see
system.mem_ctrls.rdQLenPdf::10                      0                       # What read queue length does an incoming req see
system.mem_ctrls.rdQLenPdf::11                      0                       # What read queue length does an incoming req see
system.mem_ctrls.rdQLenPdf::12                      0                       # What read queue length does an incoming req see
system.mem_ctrls.rdQLenPdf::13                      0                       # What read queue length does an incoming req see
system.mem_ctrls.rdQLenPdf::14                      0                       # What read queue length does an incoming req see
system.mem_ctrls.rdQLenPdf::15                      0                       # What read queue length does an incoming req see
system.mem_ctrls.rdQLenPdf::16                      0                       # What read queue length does an incoming req see
system.mem_ctrls.rdQLenPdf::17                      0                       # What read queue length does an incoming req see
system.mem_ctrls.rdQLenPdf::18                      0                       # What read queue length does an incoming req see
system.mem_ctrls.rdQLenPdf::19                      0                       # What read queue length does an incoming req see
system.mem_ctrls.rdQLenPdf::20                      0                       # What read queue length does an incoming req see
system.mem_ctrls.rdQLenPdf::21                      0                       # What read queue length does an incoming req see
system.mem_ctrls.rdQLenPdf::22                      0                       # What read queue length does an incoming req see
system.mem_ctrls.rdQLenPdf::23                      0                       # What read queue length does an incoming req see
system.mem_ctrls.rdQLenPdf::24                      0                       # What read queue length does an incoming req see
system.mem_ctrls.rdQLenPdf::25                      0                       # What read queue length does an incoming req see
system.mem_ctrls.rdQLenPdf::26                      0                       # What read queue length does an incoming req see
system.mem_ctrls.rdQLenPdf::27                      0                       # What read queue length does an incoming req see
system.mem_ctrls.rdQLenPdf::28                      0                       # What read queue length does an incoming req see
system.mem_ctrls.rdQLenPdf::29                      0                       # What read queue length does an incoming req see
system.mem_ctrls.rdQLenPdf::30                      0                       # What read queue length does an incoming req see
system.mem_ctrls.rdQLenPdf::31                      0                       # What read queue length does an incoming req see
system.mem_ctrls.wrQLenPdf::0                       0                       # What write queue length does an incoming req see
system.mem_ctrls.wrQLenPdf::1                       0                       # What write queue length does an incoming req see
system.mem_ctrls.wrQLenPdf::2                       0                       # What write queue length does an incoming req see
system.mem_ctrls.wrQLenPdf::3                       0                       # What write queue length does an incoming req see
system.mem_ctrls.wrQLenPdf::4                       0                       # What write queue length does an incoming req see
system.mem_ctrls.wrQLenPdf::5                       0                       # What write queue length does an incoming req see
system.mem_ctrls.wrQLenPdf::6                       0                       # What write queue length does an incoming req see
system.mem_ctrls.wrQLenPdf::7                       0                       # What write queue length does an incoming req see
system.mem_ctrls.wrQLenPdf::8                       0                       # What write queue length does an incoming req see
system.mem_ctrls.wrQLenPdf::9                       0                       # What write queue length does an incoming req see
system.mem_ctrls.wrQLenPdf::10                      0                       # What write queue length does an incoming req see
system.mem_ctrls.wrQLenPdf::11                      0                       # What write queue length does an incoming req see
system.mem_ctrls.wrQLenPdf::12                      0                       # What write queue length does an incoming req see
system.mem_ctrls.wrQLenPdf::13                      0                       # What write queue length does an incoming req see
system.mem_ctrls.wrQLenPdf::14                      0                       # What write queue length does an incoming req see
system.mem_ctrls.wrQLenPdf::15                   1145                       # What write queue length does an incoming req see
system.mem_ctrls.wrQLenPdf::16                   1306                       # What write queue length does an incoming req see
system.mem_ctrls.wrQLenPdf::17                  99283                       # What write queue length does an incoming req see
system.mem_ctrls.wrQLenPdf::18                 101074                       # What write queue length does an incoming req see
system.mem_ctrls.wrQLenPdf::19                 101110                       # What write queue length does an incoming req see
system.mem_ctrls.wrQLenPdf::20                 101139                       # What write queue length does an incoming req see
system.mem_ctrls.wrQLenPdf::21                 101145                       # What write queue length does an incoming req see
system.mem_ctrls.wrQLenPdf::22                 101140                       # What write queue length does an incoming req see
system.mem_ctrls.wrQLenPdf::23                 101128                       # What write queue length does an incoming req see
system.mem_ctrls.wrQLenPdf::24                 101200                       # What write queue length does an incoming req see
system.mem_ctrls.wrQLenPdf::25                 101164                       # What write queue length does an incoming req see
system.mem_ctrls.wrQLenPdf::26                 101143                       # What write queue length does an incoming req see
system.mem_ctrls.wrQLenPdf::27                 101125                       # What write queue length does an incoming req see
system.mem_ctrls.wrQLenPdf::28                 101107                       # What write queue length does an incoming req see
system.mem_ctrls.wrQLenPdf::29                 101072                       # What write queue length does an incoming req see
system.mem_ctrls.wrQLenPdf::30                 101049                       # What write queue length does an incoming req see
system.mem_ctrls.wrQLenPdf::31                 101034                       # What write queue length does an incoming req see
system.mem_ctrls.wrQLenPdf::32                 101011                       # What write queue length does an incoming req see
system.mem_ctrls.wrQLenPdf::33                     12                       # What write queue length does an incoming req see
system.mem_ctrls.wrQLenPdf::34                      1                       # What write queue length does an incoming req see
system.mem_ctrls.wrQLenPdf::35                      0                       # What write queue length does an incoming req see
system.mem_ctrls.wrQLenPdf::36                      0                       # What write queue length does an incoming req see
system.mem_ctrls.wrQLenPdf::37                      0                       # What write queue length does an incoming req see
system.mem_ctrls.wrQLenPdf::38                      0                       # What write queue length does an incoming req see
system.mem_ctrls.wrQLenPdf::39                      0                       # What write queue length does an incoming req see
system.mem_ctrls.wrQLenPdf::40                      0                       # What write queue length does an incoming req see
system.mem_ctrls.wrQLenPdf::41                      0                       # What write queue length does an incoming req see
system.mem_ctrls.wrQLenPdf::42                      0                       # What write queue length does an incoming req see
system.mem_ctrls.wrQLenPdf::43                      0                       # What write queue length does an incoming req see
system.mem_ctrls.wrQLenPdf::44                      0                       # What write queue length does an incoming req see
system.mem_ctrls.wrQLenPdf::45                      0                       # What write queue length does an incoming req see
system.mem_ctrls.wrQLenPdf::46                      0                       # What write queue length does an incoming req see
system.mem_ctrls.wrQLenPdf::47                      0                       # What write queue length does an incoming req see
system.mem_ctrls.wrQLenPdf::48                      0                       # What write queue length does an incoming req see
system.mem_ctrls.wrQLenPdf::49                      0                       # What write queue length does an incoming req see
system.mem_ctrls.wrQLenPdf::50                      0                       # What write queue length does an incoming req see
system.mem_ctrls.wrQLenPdf::51                      0                       # What write queue length does an incoming req see
system.mem_ctrls.wrQLenPdf::52                      0                       # What write queue length does an incoming req see
system.mem_ctrls.wrQLenPdf::53                      0                       # What write queue length does an incoming req see
system.mem_ctrls.wrQLenPdf::54                      0                       # What write queue length does an incoming req see
system.mem_ctrls.wrQLenPdf::55                      0                       # What write queue length does an incoming req see
system.mem_ctrls.wrQLenPdf::56                      0                       # What write queue length does an incoming req see
system.mem_ctrls.wrQLenPdf::57                      0                       # What write queue length does an incoming req see
system.mem_ctrls.wrQLenPdf::58                      0                       # What write queue length does an incoming req see
system.mem_ctrls.wrQLenPdf::59                      0                       # What write queue length does an incoming req see
system.mem_ctrls.wrQLenPdf::60                      0                       # What write queue length does an incoming req see
system.mem_ctrls.wrQLenPdf::61                      0                       # What write queue length does an incoming req see
system.mem_ctrls.wrQLenPdf::62                      0                       # What write queue length does an incoming req see
system.mem_ctrls.wrQLenPdf::63                      0                       # What write queue length does an incoming req see
system.mem_ctrls.bytesPerActivate::samples      2072193                       # Bytes accessed per row activation
system.mem_ctrls.bytesPerActivate::mean    134.442798                       # Bytes accessed per row activation
system.mem_ctrls.bytesPerActivate::gmean    89.727560                       # Bytes accessed per row activation
system.mem_ctrls.bytesPerActivate::stdev   191.684666                       # Bytes accessed per row activation
system.mem_ctrls.bytesPerActivate::0-127      1581184     76.30%     76.30% # Bytes accessed per row activation
system.mem_ctrls.bytesPerActivate::128-255       252645     12.19%     88.50% # Bytes accessed per row activation
system.mem_ctrls.bytesPerActivate::256-383        58923      2.84%     91.34% # Bytes accessed per row activation
system.mem_ctrls.bytesPerActivate::384-511        41696      2.01%     93.35% # Bytes accessed per row activation
system.mem_ctrls.bytesPerActivate::512-639        36837      1.78%     95.13% # Bytes accessed per row activation
system.mem_ctrls.bytesPerActivate::640-767        26397      1.27%     96.40% # Bytes accessed per row activation
system.mem_ctrls.bytesPerActivate::768-895        18840      0.91%     97.31% # Bytes accessed per row activation
system.mem_ctrls.bytesPerActivate::896-1023        15342      0.74%     98.05% # Bytes accessed per row activation
system.mem_ctrls.bytesPerActivate::1024-1151        40329      1.95%    100.00% # Bytes accessed per row activation
system.mem_ctrls.bytesPerActivate::total      2072193                       # Bytes accessed per row activation
system.mem_ctrls.rdPerTurnAround::samples       100991                       # Reads before turning the bus around for writes
system.mem_ctrls.rdPerTurnAround::mean      27.077720                       # Reads before turning the bus around for writes
system.mem_ctrls.rdPerTurnAround::gmean     24.516683                       # Reads before turning the bus around for writes
system.mem_ctrls.rdPerTurnAround::stdev     18.358508                       # Reads before turning the bus around for writes
system.mem_ctrls.rdPerTurnAround::0-15            194      0.19%      0.19% # Reads before turning the bus around for writes
system.mem_ctrls.rdPerTurnAround::16-31         74884     74.15%     74.34% # Reads before turning the bus around for writes
system.mem_ctrls.rdPerTurnAround::32-47         21658     21.45%     95.79% # Reads before turning the bus around for writes
system.mem_ctrls.rdPerTurnAround::48-63          2022      2.00%     97.79% # Reads before turning the bus around for writes
system.mem_ctrls.rdPerTurnAround::64-79           742      0.73%     98.52% # Reads before turning the bus around for writes
system.mem_ctrls.rdPerTurnAround::80-95           333      0.33%     98.85% # Reads before turning the bus around for writes
system.mem_ctrls.rdPerTurnAround::96-111          168      0.17%     99.02% # Reads before turning the bus around for writes
system.mem_ctrls.rdPerTurnAround::112-127          155      0.15%     99.17% # Reads before turning the bus around for writes
system.mem_ctrls.rdPerTurnAround::128-143          168      0.17%     99.34% # Reads before turning the bus around for writes
system.mem_ctrls.rdPerTurnAround::144-159          165      0.16%     99.50% # Reads before turning the bus around for writes
system.mem_ctrls.rdPerTurnAround::160-175           73      0.07%     99.58% # Reads before turning the bus around for writes
system.mem_ctrls.rdPerTurnAround::176-191           54      0.05%     99.63% # Reads before turning the bus around for writes
system.mem_ctrls.rdPerTurnAround::192-207          157      0.16%     99.78% # Reads before turning the bus around for writes
system.mem_ctrls.rdPerTurnAround::208-223           88      0.09%     99.87% # Reads before turning the bus around for writes
system.mem_ctrls.rdPerTurnAround::224-239           52      0.05%     99.92% # Reads before turning the bus around for writes
system.mem_ctrls.rdPerTurnAround::240-255           28      0.03%     99.95% # Reads before turning the bus around for writes
system.mem_ctrls.rdPerTurnAround::256-271           31      0.03%     99.98% # Reads before turning the bus around for writes
system.mem_ctrls.rdPerTurnAround::272-287           14      0.01%    100.00% # Reads before turning the bus around for writes
system.mem_ctrls.rdPerTurnAround::288-303            2      0.00%    100.00% # Reads before turning the bus around for writes
system.mem_ctrls.rdPerTurnAround::304-319            2      0.00%    100.00% # Reads before turning the bus around for writes
system.mem_ctrls.rdPerTurnAround::448-463            1      0.00%    100.00% # Reads before turning the bus around for writes
system.mem_ctrls.rdPerTurnAround::total        100991                       # Reads before turning the bus around for writes
system.mem_ctrls.wrPerTurnAround::samples       100991                       # Writes before turning the bus around for reads
system.mem_ctrls.wrPerTurnAround::mean      16.025121                       # Writes before turning the bus around for reads
system.mem_ctrls.wrPerTurnAround::gmean     16.023711                       # Writes before turning the bus around for reads
system.mem_ctrls.wrPerTurnAround::stdev      0.220929                       # Writes before turning the bus around for reads
system.mem_ctrls.wrPerTurnAround::16            99671     98.69%     98.69% # Writes before turning the bus around for reads
system.mem_ctrls.wrPerTurnAround::17              114      0.11%     98.81% # Writes before turning the bus around for reads
system.mem_ctrls.wrPerTurnAround::18             1195      1.18%     99.99% # Writes before turning the bus around for reads
system.mem_ctrls.wrPerTurnAround::19               11      0.01%    100.00% # Writes before turning the bus around for reads
system.mem_ctrls.wrPerTurnAround::total        100991                       # Writes before turning the bus around for reads
system.mem_ctrls.totQLat                  62094011395                       # Total ticks spent queuing
system.mem_ctrls.totMemAccLat            113367705145                       # Total ticks spent from burst creation until serviced by the DRAM
system.mem_ctrls.totBusLat                13672985000                       # Total ticks spent in databus transfers
system.mem_ctrls.avgQLat                     22706.82                       # Average queueing delay per DRAM burst
system.mem_ctrls.avgBusLat                    5000.00                       # Average bus latency per DRAM burst
system.mem_ctrls.avgMemAccLat                41456.82                       # Average memory access latency per DRAM burst
system.mem_ctrls.avgRdBW                       144.95                       # Average DRAM read bandwidth in MiByte/s
system.mem_ctrls.avgWrBW                        85.78                       # Average achieved write bandwidth in MiByte/s
system.mem_ctrls.avgRdBWSys                    145.01                       # Average system read bandwidth in MiByte/s
system.mem_ctrls.avgWrBWSys                     85.78                       # Average system write bandwidth in MiByte/s
system.mem_ctrls.peakBW                      12800.00                       # Theoretical peak bandwidth in MiByte/s
system.mem_ctrls.busUtil                         1.80                       # Data bus utilization in percentage
system.mem_ctrls.busUtilRead                     1.13                       # Data bus utilization in percentage for reads
system.mem_ctrls.busUtilWrite                    0.67                       # Data bus utilization in percentage for writes
system.mem_ctrls.avgRdQLen                       1.00                       # Average read queue length when enqueuing
system.mem_ctrls.avgWrQLen                      25.66                       # Average write queue length when enqueuing
system.mem_ctrls.readRowHits                  1518606                       # Number of row buffer hits during reads
system.mem_ctrls.writeRowHits                  762191                       # Number of row buffer hits during writes
system.mem_ctrls.readRowHitRate                 55.53                       # Row buffer hit rate for reads
system.mem_ctrls.writeRowHitRate                47.10                       # Row buffer hit rate for writes
system.mem_ctrls.avgGap                     277304.53                       # Average gap between requests
system.mem_ctrls.pageHitRate                    52.40                       # Row buffer hit rate, read and write combined
system.mem_ctrls_0.actEnergy               7940154600                       # Energy for activate commands per rank (pJ)
system.mem_ctrls_0.preEnergy               4332425625                       # Energy for precharge commands per rank (pJ)
system.mem_ctrls_0.readEnergy             10837827000                       # Energy for read commands per rank (pJ)
system.mem_ctrls_0.writeEnergy             5304877920                       # Energy for write commands per rank (pJ)
system.mem_ctrls_0.refreshEnergy          79320103200                       # Energy for refresh commands per rank (pJ)
system.mem_ctrls_0.actBackEnergy         267748279110                       # Energy for active background per rank (pJ)
system.mem_ctrls_0.preBackEnergy         493786092000                       # Energy for precharge background per rank (pJ)
system.mem_ctrls_0.totalEnergy           869269759455                       # Total energy per rank (pJ)
system.mem_ctrls_0.averagePower            715.789070                       # Core power per rank (mW)
system.mem_ctrls_0.memoryStateTime::IDLE 814800602253                       # Time in different power states
system.mem_ctrls_0.memoryStateTime::REF   40318200000                       # Time in different power states
system.mem_ctrls_0.memoryStateTime::PRE_PDN            0                       # Time in different power states
system.mem_ctrls_0.memoryStateTime::ACT  352298258747                       # Time in different power states
system.mem_ctrls_0.memoryStateTime::ACT_PDN            0                       # Time in different power states
system.mem_ctrls_1.actEnergy               7814394000                       # Energy for activate commands per rank (pJ)
system.mem_ctrls_1.preEnergy               4263806250                       # Energy for precharge commands per rank (pJ)
system.mem_ctrls_1.readEnergy             10720920600                       # Energy for read commands per rank (pJ)
system.mem_ctrls_1.writeEnergy             5245676640                       # Energy for write commands per rank (pJ)
system.mem_ctrls_1.refreshEnergy          79320103200                       # Energy for refresh commands per rank (pJ)
system.mem_ctrls_1.actBackEnergy         266242151295                       # Energy for active background per rank (pJ)
system.mem_ctrls_1.preBackEnergy         495107256750                       # Energy for precharge background per rank (pJ)
system.mem_ctrls_1.totalEnergy           868714308735                       # Total energy per rank (pJ)
system.mem_ctrls_1.averagePower            715.331691                       # Core power per rank (mW)
system.mem_ctrls_1.memoryStateTime::IDLE 816796673249                       # Time in different power states
system.mem_ctrls_1.memoryStateTime::REF   40318200000                       # Time in different power states
system.mem_ctrls_1.memoryStateTime::PRE_PDN            0                       # Time in different power states
system.mem_ctrls_1.memoryStateTime::ACT  350298914251                       # Time in different power states
system.mem_ctrls_1.memoryStateTime::ACT_PDN            0                       # Time in different power states
system.cpu_voltage_domain.voltage                   1                       # Voltage in Volts
system.cpu_clk_domain.clock                       500                       # Clock period in ticks
system.cpu0.apic_clk_domain.clock                8000                       # Clock period in ticks
system.cpu0.numCycles                      2415496923                       # number of cpu cycles simulated
system.cpu0.numWorkItemsStarted                     0                       # number of work items this cpu started
system.cpu0.numWorkItemsCompleted                   0                       # number of work items this cpu completed
system.cpu0.kern.inst.arm                           0                       # number of arm instructions executed
system.cpu0.kern.inst.quiesce                       0                       # number of quiesce instructions executed
system.cpu0.committedInsts                  534029769                       # Number of instructions committed
system.cpu0.committedOps                    709566157                       # Number of ops (including micro ops) committed
system.cpu0.num_int_alu_accesses            509178814                       # Number of integer alu accesses
system.cpu0.num_fp_alu_accesses             331101068                       # Number of float alu accesses
system.cpu0.num_func_calls                     447201                       # number of times a function call or return occured
system.cpu0.num_conditional_control_insts     31486673                       # number of instructions that are conditional controls
system.cpu0.num_int_insts                   509178814                       # number of integer instructions
system.cpu0.num_fp_insts                    331101068                       # number of float instructions
system.cpu0.num_int_register_reads         1070879282                       # number of times the integer registers were read
system.cpu0.num_int_register_writes         340148688                       # number of times the integer registers were written
system.cpu0.num_fp_register_reads           564014582                       # number of times the floating registers were read
system.cpu0.num_fp_register_writes          276695748                       # number of times the floating registers were written
system.cpu0.num_cc_register_reads           220476133                       # number of times the CC registers were read
system.cpu0.num_cc_register_writes          241479699                       # number of times the CC registers were written
system.cpu0.num_mem_refs                    152924678                       # number of memory refs
system.cpu0.num_load_insts                   94814117                       # Number of load instructions
system.cpu0.num_store_insts                  58110561                       # Number of store instructions
system.cpu0.num_idle_cycles              10866250.050791                       # Number of idle cycles
system.cpu0.num_busy_cycles              2404630672.949209                       # Number of busy cycles
system.cpu0.not_idle_fraction                0.995501                       # Percentage of non-idle cycles
system.cpu0.idle_fraction                    0.004499                       # Percentage of idle cycles
system.cpu0.Branches                         33916372                       # Number of branches fetched
system.cpu0.op_class::No_OpClass               957533      0.13%      0.13% # Class of executed instruction
system.cpu0.op_class::IntAlu                444372415     62.63%     62.76% # Class of executed instruction
system.cpu0.op_class::IntMult                   24929      0.00%     62.76% # Class of executed instruction
system.cpu0.op_class::IntDiv                   145174      0.02%     62.78% # Class of executed instruction
system.cpu0.op_class::FloatAdd              111149730     15.66%     78.45% # Class of executed instruction
system.cpu0.op_class::FloatCmp                      0      0.00%     78.45% # Class of executed instruction
system.cpu0.op_class::FloatCvt                      0      0.00%     78.45% # Class of executed instruction
system.cpu0.op_class::FloatMult                     0      0.00%     78.45% # Class of executed instruction
system.cpu0.op_class::FloatDiv                      0      0.00%     78.45% # Class of executed instruction
system.cpu0.op_class::FloatSqrt                     0      0.00%     78.45% # Class of executed instruction
system.cpu0.op_class::SimdAdd                       0      0.00%     78.45% # Class of executed instruction
system.cpu0.op_class::SimdAddAcc                    0      0.00%     78.45% # Class of executed instruction
system.cpu0.op_class::SimdAlu                       0      0.00%     78.45% # Class of executed instruction
system.cpu0.op_class::SimdCmp                       0      0.00%     78.45% # Class of executed instruction
system.cpu0.op_class::SimdCvt                       0      0.00%     78.45% # Class of executed instruction
system.cpu0.op_class::SimdMisc                      0      0.00%     78.45% # Class of executed instruction
system.cpu0.op_class::SimdMult                      0      0.00%     78.45% # Class of executed instruction
system.cpu0.op_class::SimdMultAcc                   0      0.00%     78.45% # Class of executed instruction
system.cpu0.op_class::SimdShift                     0      0.00%     78.45% # Class of executed instruction
system.cpu0.op_class::SimdShiftAcc                  0      0.00%     78.45% # Class of executed instruction
system.cpu0.op_class::SimdSqrt                      0      0.00%     78.45% # Class of executed instruction
system.cpu0.op_class::SimdFloatAdd                  0      0.00%     78.45% # Class of executed instruction
system.cpu0.op_class::SimdFloatAlu                  0      0.00%     78.45% # Class of executed instruction
system.cpu0.op_class::SimdFloatCmp                  0      0.00%     78.45% # Class of executed instruction
system.cpu0.op_class::SimdFloatCvt                  0      0.00%     78.45% # Class of executed instruction
system.cpu0.op_class::SimdFloatDiv                  0      0.00%     78.45% # Class of executed instruction
system.cpu0.op_class::SimdFloatMisc                 0      0.00%     78.45% # Class of executed instruction
system.cpu0.op_class::SimdFloatMult                 0      0.00%     78.45% # Class of executed instruction
system.cpu0.op_class::SimdFloatMultAcc              0      0.00%     78.45% # Class of executed instruction
system.cpu0.op_class::SimdFloatSqrt                 0      0.00%     78.45% # Class of executed instruction
system.cpu0.op_class::MemRead                94814117     13.36%     91.81% # Class of executed instruction
system.cpu0.op_class::MemWrite               58110561      8.19%    100.00% # Class of executed instruction
system.cpu0.op_class::IprAccess                     0      0.00%    100.00% # Class of executed instruction
system.cpu0.op_class::InstPrefetch                  0      0.00%    100.00% # Class of executed instruction
system.cpu0.op_class::total                 709574459                       # Class of executed instruction
system.cpu1.apic_clk_domain.clock                8000                       # Clock period in ticks
system.cpu1.numCycles                      2414132856                       # number of cpu cycles simulated
system.cpu1.numWorkItemsStarted                     0                       # number of work items this cpu started
system.cpu1.numWorkItemsCompleted                   0                       # number of work items this cpu completed
system.cpu1.kern.inst.arm                           0                       # number of arm instructions executed
system.cpu1.kern.inst.quiesce                       0                       # number of quiesce instructions executed
system.cpu1.committedInsts                     792848                       # Number of instructions committed
system.cpu1.committedOps                      1715990                       # Number of ops (including micro ops) committed
system.cpu1.num_int_alu_accesses              1679399                       # Number of integer alu accesses
system.cpu1.num_fp_alu_accesses                     0                       # Number of float alu accesses
system.cpu1.num_func_calls                      48220                       # number of times a function call or return occured
system.cpu1.num_conditional_control_insts       118363                       # number of instructions that are conditional controls
system.cpu1.num_int_insts                     1679399                       # number of integer instructions
system.cpu1.num_fp_insts                            0                       # number of float instructions
system.cpu1.num_int_register_reads            3410229                       # number of times the integer registers were read
system.cpu1.num_int_register_writes           1391496                       # number of times the integer registers were written
system.cpu1.num_fp_register_reads                   0                       # number of times the floating registers were read
system.cpu1.num_fp_register_writes                  0                       # number of times the floating registers were written
system.cpu1.num_cc_register_reads              948234                       # number of times the CC registers were read
system.cpu1.num_cc_register_writes             504156                       # number of times the CC registers were written
system.cpu1.num_mem_refs                       411824                       # number of memory refs
system.cpu1.num_load_insts                     256381                       # Number of load instructions
system.cpu1.num_store_insts                    155443                       # Number of store instructions
system.cpu1.num_idle_cycles              2407410440.500837                       # Number of idle cycles
system.cpu1.num_busy_cycles              6722415.499162                       # Number of busy cycles
system.cpu1.not_idle_fraction                0.002785                       # Percentage of non-idle cycles
system.cpu1.idle_fraction                    0.997215                       # Percentage of idle cycles
system.cpu1.Branches                           182060                       # Number of branches fetched
system.cpu1.op_class::No_OpClass                30639      1.79%      1.79% # Class of executed instruction
system.cpu1.op_class::IntAlu                  1259345     73.39%     75.17% # Class of executed instruction
system.cpu1.op_class::IntMult                    3573      0.21%     75.38% # Class of executed instruction
system.cpu1.op_class::IntDiv                    10612      0.62%     76.00% # Class of executed instruction
system.cpu1.op_class::FloatAdd                      0      0.00%     76.00% # Class of executed instruction
system.cpu1.op_class::FloatCmp                      0      0.00%     76.00% # Class of executed instruction
system.cpu1.op_class::FloatCvt                      0      0.00%     76.00% # Class of executed instruction
system.cpu1.op_class::FloatMult                     0      0.00%     76.00% # Class of executed instruction
system.cpu1.op_class::FloatDiv                      0      0.00%     76.00% # Class of executed instruction
system.cpu1.op_class::FloatSqrt                     0      0.00%     76.00% # Class of executed instruction
system.cpu1.op_class::SimdAdd                       0      0.00%     76.00% # Class of executed instruction
system.cpu1.op_class::SimdAddAcc                    0      0.00%     76.00% # Class of executed instruction
system.cpu1.op_class::SimdAlu                       0      0.00%     76.00% # Class of executed instruction
system.cpu1.op_class::SimdCmp                       0      0.00%     76.00% # Class of executed instruction
system.cpu1.op_class::SimdCvt                       0      0.00%     76.00% # Class of executed instruction
system.cpu1.op_class::SimdMisc                      0      0.00%     76.00% # Class of executed instruction
system.cpu1.op_class::SimdMult                      0      0.00%     76.00% # Class of executed instruction
system.cpu1.op_class::SimdMultAcc                   0      0.00%     76.00% # Class of executed instruction
system.cpu1.op_class::SimdShift                     0      0.00%     76.00% # Class of executed instruction
system.cpu1.op_class::SimdShiftAcc                  0      0.00%     76.00% # Class of executed instruction
system.cpu1.op_class::SimdSqrt                      0      0.00%     76.00% # Class of executed instruction
system.cpu1.op_class::SimdFloatAdd                  0      0.00%     76.00% # Class of executed instruction
system.cpu1.op_class::SimdFloatAlu                  0      0.00%     76.00% # Class of executed instruction
system.cpu1.op_class::SimdFloatCmp                  0      0.00%     76.00% # Class of executed instruction
system.cpu1.op_class::SimdFloatCvt                  0      0.00%     76.00% # Class of executed instruction
system.cpu1.op_class::SimdFloatDiv                  0      0.00%     76.00% # Class of executed instruction
system.cpu1.op_class::SimdFloatMisc                 0      0.00%     76.00% # Class of executed instruction
system.cpu1.op_class::SimdFloatMult                 0      0.00%     76.00% # Class of executed instruction
system.cpu1.op_class::SimdFloatMultAcc              0      0.00%     76.00% # Class of executed instruction
system.cpu1.op_class::SimdFloatSqrt                 0      0.00%     76.00% # Class of executed instruction
system.cpu1.op_class::MemRead                  256381     14.94%     90.94% # Class of executed instruction
system.cpu1.op_class::MemWrite                 155443      9.06%    100.00% # Class of executed instruction
system.cpu1.op_class::IprAccess                     0      0.00%    100.00% # Class of executed instruction
system.cpu1.op_class::InstPrefetch                  0      0.00%    100.00% # Class of executed instruction
system.cpu1.op_class::total                   1715993                       # Class of executed instruction
system.cpu2.apic_clk_domain.clock                8000                       # Clock period in ticks
system.cpu2.numCycles                      2413726727                       # number of cpu cycles simulated
system.cpu2.numWorkItemsStarted                     0                       # number of work items this cpu started
system.cpu2.numWorkItemsCompleted                   0                       # number of work items this cpu completed
system.cpu2.kern.inst.arm                           0                       # number of arm instructions executed
system.cpu2.kern.inst.quiesce                       0                       # number of quiesce instructions executed
system.cpu2.committedInsts                    2932026                       # Number of instructions committed
system.cpu2.committedOps                      5818471                       # Number of ops (including micro ops) committed
system.cpu2.num_int_alu_accesses              5717267                       # Number of integer alu accesses
system.cpu2.num_fp_alu_accesses                  1826                       # Number of float alu accesses
system.cpu2.num_func_calls                     148870                       # number of times a function call or return occured
system.cpu2.num_conditional_control_insts       493587                       # number of instructions that are conditional controls
system.cpu2.num_int_insts                     5717267                       # number of integer instructions
system.cpu2.num_fp_insts                         1826                       # number of float instructions
system.cpu2.num_int_register_reads           11383226                       # number of times the integer registers were read
system.cpu2.num_int_register_writes           4644697                       # number of times the integer registers were written
system.cpu2.num_fp_register_reads                3068                       # number of times the floating registers were read
system.cpu2.num_fp_register_writes               1448                       # number of times the floating registers were written
system.cpu2.num_cc_register_reads             3664729                       # number of times the CC registers were read
system.cpu2.num_cc_register_writes            1992821                       # number of times the CC registers were written
system.cpu2.num_mem_refs                      1315621                       # number of memory refs
system.cpu2.num_load_insts                     852550                       # Number of load instructions
system.cpu2.num_store_insts                    463071                       # Number of store instructions
system.cpu2.num_idle_cycles              2397904087.689347                       # Number of idle cycles
system.cpu2.num_busy_cycles              15822639.310653                       # Number of busy cycles
system.cpu2.not_idle_fraction                0.006555                       # Percentage of non-idle cycles
system.cpu2.idle_fraction                    0.993445                       # Percentage of idle cycles
system.cpu2.Branches                           669435                       # Number of branches fetched
system.cpu2.op_class::No_OpClass                37983      0.65%      0.65% # Class of executed instruction
system.cpu2.op_class::IntAlu                  4446014     76.41%     77.06% # Class of executed instruction
system.cpu2.op_class::IntMult                    5548      0.10%     77.16% # Class of executed instruction
system.cpu2.op_class::IntDiv                    12021      0.21%     77.37% # Class of executed instruction
system.cpu2.op_class::FloatAdd                   1376      0.02%     77.39% # Class of executed instruction
system.cpu2.op_class::FloatCmp                      0      0.00%     77.39% # Class of executed instruction
system.cpu2.op_class::FloatCvt                      0      0.00%     77.39% # Class of executed instruction
system.cpu2.op_class::FloatMult                     0      0.00%     77.39% # Class of executed instruction
system.cpu2.op_class::FloatDiv                      0      0.00%     77.39% # Class of executed instruction
system.cpu2.op_class::FloatSqrt                     0      0.00%     77.39% # Class of executed instruction
system.cpu2.op_class::SimdAdd                       0      0.00%     77.39% # Class of executed instruction
system.cpu2.op_class::SimdAddAcc                    0      0.00%     77.39% # Class of executed instruction
system.cpu2.op_class::SimdAlu                       0      0.00%     77.39% # Class of executed instruction
system.cpu2.op_class::SimdCmp                       0      0.00%     77.39% # Class of executed instruction
system.cpu2.op_class::SimdCvt                       0      0.00%     77.39% # Class of executed instruction
system.cpu2.op_class::SimdMisc                      0      0.00%     77.39% # Class of executed instruction
system.cpu2.op_class::SimdMult                      0      0.00%     77.39% # Class of executed instruction
system.cpu2.op_class::SimdMultAcc                   0      0.00%     77.39% # Class of executed instruction
system.cpu2.op_class::SimdShift                     0      0.00%     77.39% # Class of executed instruction
system.cpu2.op_class::SimdShiftAcc                  0      0.00%     77.39% # Class of executed instruction
system.cpu2.op_class::SimdSqrt                      0      0.00%     77.39% # Class of executed instruction
system.cpu2.op_class::SimdFloatAdd                  0      0.00%     77.39% # Class of executed instruction
system.cpu2.op_class::SimdFloatAlu                  0      0.00%     77.39% # Class of executed instruction
system.cpu2.op_class::SimdFloatCmp                  0      0.00%     77.39% # Class of executed instruction
system.cpu2.op_class::SimdFloatCvt                  0      0.00%     77.39% # Class of executed instruction
system.cpu2.op_class::SimdFloatDiv                  0      0.00%     77.39% # Class of executed instruction
system.cpu2.op_class::SimdFloatMisc                 0      0.00%     77.39% # Class of executed instruction
system.cpu2.op_class::SimdFloatMult                 0      0.00%     77.39% # Class of executed instruction
system.cpu2.op_class::SimdFloatMultAcc              0      0.00%     77.39% # Class of executed instruction
system.cpu2.op_class::SimdFloatSqrt                 0      0.00%     77.39% # Class of executed instruction
system.cpu2.op_class::MemRead                  852550     14.65%     92.04% # Class of executed instruction
system.cpu2.op_class::MemWrite                 463071      7.96%    100.00% # Class of executed instruction
system.cpu2.op_class::IprAccess                     0      0.00%    100.00% # Class of executed instruction
system.cpu2.op_class::InstPrefetch                  0      0.00%    100.00% # Class of executed instruction
system.cpu2.op_class::total                   5818563                       # Class of executed instruction
system.cpu3.apic_clk_domain.clock                8000                       # Clock period in ticks
system.cpu3.numCycles                      2419215755                       # number of cpu cycles simulated
system.cpu3.numWorkItemsStarted                     0                       # number of work items this cpu started
system.cpu3.numWorkItemsCompleted                   0                       # number of work items this cpu completed
system.cpu3.kern.inst.arm                           0                       # number of arm instructions executed
system.cpu3.kern.inst.quiesce                       0                       # number of quiesce instructions executed
system.cpu3.committedInsts                     973760                       # Number of instructions committed
system.cpu3.committedOps                      2089305                       # Number of ops (including micro ops) committed
system.cpu3.num_int_alu_accesses              2043097                       # Number of integer alu accesses
system.cpu3.num_fp_alu_accesses                    39                       # Number of float alu accesses
system.cpu3.num_func_calls                      59060                       # number of times a function call or return occured
system.cpu3.num_conditional_control_insts       143687                       # number of instructions that are conditional controls
system.cpu3.num_int_insts                     2043097                       # number of integer instructions
system.cpu3.num_fp_insts                           39                       # number of float instructions
system.cpu3.num_int_register_reads            4165672                       # number of times the integer registers were read
system.cpu3.num_int_register_writes           1691805                       # number of times the integer registers were written
system.cpu3.num_fp_register_reads                  63                       # number of times the floating registers were read
system.cpu3.num_fp_register_writes                 31                       # number of times the floating registers were written
system.cpu3.num_cc_register_reads             1141707                       # number of times the CC registers were read
system.cpu3.num_cc_register_writes             611615                       # number of times the CC registers were written
system.cpu3.num_mem_refs                       499487                       # number of memory refs
system.cpu3.num_load_insts                     310115                       # Number of load instructions
system.cpu3.num_store_insts                    189372                       # Number of store instructions
system.cpu3.num_idle_cycles              2412654705.520266                       # Number of idle cycles
system.cpu3.num_busy_cycles              6561049.479734                       # Number of busy cycles
system.cpu3.not_idle_fraction                0.002712                       # Percentage of non-idle cycles
system.cpu3.idle_fraction                    0.997288                       # Percentage of idle cycles
system.cpu3.Branches                           222025                       # Number of branches fetched
system.cpu3.op_class::No_OpClass                36665      1.75%      1.75% # Class of executed instruction
system.cpu3.op_class::IntAlu                  1536115     73.52%     75.28% # Class of executed instruction
system.cpu3.op_class::IntMult                    3781      0.18%     75.46% # Class of executed instruction
system.cpu3.op_class::IntDiv                    13250      0.63%     76.09% # Class of executed instruction
system.cpu3.op_class::FloatAdd                     30      0.00%     76.09% # Class of executed instruction
system.cpu3.op_class::FloatCmp                      0      0.00%     76.09% # Class of executed instruction
system.cpu3.op_class::FloatCvt                      0      0.00%     76.09% # Class of executed instruction
system.cpu3.op_class::FloatMult                     0      0.00%     76.09% # Class of executed instruction
system.cpu3.op_class::FloatDiv                      0      0.00%     76.09% # Class of executed instruction
system.cpu3.op_class::FloatSqrt                     0      0.00%     76.09% # Class of executed instruction
system.cpu3.op_class::SimdAdd                       0      0.00%     76.09% # Class of executed instruction
system.cpu3.op_class::SimdAddAcc                    0      0.00%     76.09% # Class of executed instruction
system.cpu3.op_class::SimdAlu                       0      0.00%     76.09% # Class of executed instruction
system.cpu3.op_class::SimdCmp                       0      0.00%     76.09% # Class of executed instruction
system.cpu3.op_class::SimdCvt                       0      0.00%     76.09% # Class of executed instruction
system.cpu3.op_class::SimdMisc                      0      0.00%     76.09% # Class of executed instruction
system.cpu3.op_class::SimdMult                      0      0.00%     76.09% # Class of executed instruction
system.cpu3.op_class::SimdMultAcc                   0      0.00%     76.09% # Class of executed instruction
system.cpu3.op_class::SimdShift                     0      0.00%     76.09% # Class of executed instruction
system.cpu3.op_class::SimdShiftAcc                  0      0.00%     76.09% # Class of executed instruction
system.cpu3.op_class::SimdSqrt                      0      0.00%     76.09% # Class of executed instruction
system.cpu3.op_class::SimdFloatAdd                  0      0.00%     76.09% # Class of executed instruction
system.cpu3.op_class::SimdFloatAlu                  0      0.00%     76.09% # Class of executed instruction
system.cpu3.op_class::SimdFloatCmp                  0      0.00%     76.09% # Class of executed instruction
system.cpu3.op_class::SimdFloatCvt                  0      0.00%     76.09% # Class of executed instruction
system.cpu3.op_class::SimdFloatDiv                  0      0.00%     76.09% # Class of executed instruction
system.cpu3.op_class::SimdFloatMisc                 0      0.00%     76.09% # Class of executed instruction
system.cpu3.op_class::SimdFloatMult                 0      0.00%     76.09% # Class of executed instruction
system.cpu3.op_class::SimdFloatMultAcc              0      0.00%     76.09% # Class of executed instruction
system.cpu3.op_class::SimdFloatSqrt                 0      0.00%     76.09% # Class of executed instruction
system.cpu3.op_class::MemRead                  310115     14.84%     90.94% # Class of executed instruction
system.cpu3.op_class::MemWrite                 189372      9.06%    100.00% # Class of executed instruction
system.cpu3.op_class::IprAccess                     0      0.00%    100.00% # Class of executed instruction
system.cpu3.op_class::InstPrefetch                  0      0.00%    100.00% # Class of executed instruction
system.cpu3.op_class::total                   2089328                       # Class of executed instruction
system.iobus.trans_dist::ReadReq                  712                       # Transaction distribution
system.iobus.trans_dist::ReadResp                 712                       # Transaction distribution
system.iobus.trans_dist::WriteReq                1479                       # Transaction distribution
system.iobus.trans_dist::WriteResp               1479                       # Transaction distribution
system.iobus.trans_dist::MessageReq                12                       # Transaction distribution
system.iobus.trans_dist::MessageResp               12                       # Transaction distribution
system.iobus.pkt_count_system.pc.south_bridge.io_apic.int_master::system.ruby.l1_cntrl0.sequencer.pio-slave-port            4                       # Packet count per connected master and slave (bytes)
system.iobus.pkt_count_system.pc.south_bridge.io_apic.int_master::system.ruby.l1_cntrl1.sequencer.pio-slave-port            2                       # Packet count per connected master and slave (bytes)
system.iobus.pkt_count_system.pc.south_bridge.io_apic.int_master::system.ruby.l1_cntrl2.sequencer.pio-slave-port            2                       # Packet count per connected master and slave (bytes)
system.iobus.pkt_count_system.pc.south_bridge.io_apic.int_master::system.ruby.l1_cntrl3.sequencer.pio-slave-port            2                       # Packet count per connected master and slave (bytes)
system.iobus.pkt_count_system.pc.south_bridge.io_apic.int_master::total           10                       # Packet count per connected master and slave (bytes)
system.iobus.pkt_count_system.ruby.l1_cntrl0.sequencer.mem-master-port::system.pc.south_bridge.io_apic.pio           14                       # Packet count per connected master and slave (bytes)
system.iobus.pkt_count_system.ruby.l1_cntrl0.sequencer.mem-master-port::system.pc.com_1.pio          130                       # Packet count per connected master and slave (bytes)
system.iobus.pkt_count_system.ruby.l1_cntrl0.sequencer.mem-master-port::system.ruby.l1_cntrl0.sequencer.pio-slave-port          624                       # Packet count per connected master and slave (bytes)
system.iobus.pkt_count_system.ruby.l1_cntrl0.sequencer.mem-master-port::system.ruby.l1_cntrl1.sequencer.pio-slave-port            2                       # Packet count per connected master and slave (bytes)
system.iobus.pkt_count_system.ruby.l1_cntrl0.sequencer.mem-master-port::system.ruby.l1_cntrl3.sequencer.pio-slave-port            2                       # Packet count per connected master and slave (bytes)
system.iobus.pkt_count_system.ruby.l1_cntrl0.sequencer.mem-master-port::total          772                       # Packet count per connected master and slave (bytes)
system.iobus.pkt_count_system.ruby.l1_cntrl1.sequencer.mem-master-port::system.pc.south_bridge.io_apic.pio            8                       # Packet count per connected master and slave (bytes)
system.iobus.pkt_count_system.ruby.l1_cntrl1.sequencer.mem-master-port::system.ruby.l1_cntrl1.sequencer.pio-slave-port          616                       # Packet count per connected master and slave (bytes)
system.iobus.pkt_count_system.ruby.l1_cntrl1.sequencer.mem-master-port::system.ruby.l1_cntrl2.sequencer.pio-slave-port            2                       # Packet count per connected master and slave (bytes)
system.iobus.pkt_count_system.ruby.l1_cntrl1.sequencer.mem-master-port::total          626                       # Packet count per connected master and slave (bytes)
system.iobus.pkt_count_system.ruby.l1_cntrl2.sequencer.mem-master-port::system.pc.south_bridge.io_apic.pio            8                       # Packet count per connected master and slave (bytes)
system.iobus.pkt_count_system.ruby.l1_cntrl2.sequencer.mem-master-port::system.ruby.l1_cntrl0.sequencer.pio-slave-port            2                       # Packet count per connected master and slave (bytes)
system.iobus.pkt_count_system.ruby.l1_cntrl2.sequencer.mem-master-port::system.ruby.l1_cntrl1.sequencer.pio-slave-port            2                       # Packet count per connected master and slave (bytes)
system.iobus.pkt_count_system.ruby.l1_cntrl2.sequencer.mem-master-port::system.ruby.l1_cntrl2.sequencer.pio-slave-port          626                       # Packet count per connected master and slave (bytes)
system.iobus.pkt_count_system.ruby.l1_cntrl2.sequencer.mem-master-port::system.ruby.l1_cntrl3.sequencer.pio-slave-port            2                       # Packet count per connected master and slave (bytes)
system.iobus.pkt_count_system.ruby.l1_cntrl2.sequencer.mem-master-port::total          640                       # Packet count per connected master and slave (bytes)
system.iobus.pkt_count_system.ruby.l1_cntrl3.sequencer.mem-master-port::system.pc.south_bridge.io_apic.pio            6                       # Packet count per connected master and slave (bytes)
system.iobus.pkt_count_system.ruby.l1_cntrl3.sequencer.mem-master-port::system.pc.com_1.pio         1734                       # Packet count per connected master and slave (bytes)
system.iobus.pkt_count_system.ruby.l1_cntrl3.sequencer.mem-master-port::system.ruby.l1_cntrl0.sequencer.pio-slave-port            2                       # Packet count per connected master and slave (bytes)
system.iobus.pkt_count_system.ruby.l1_cntrl3.sequencer.mem-master-port::system.ruby.l1_cntrl3.sequencer.pio-slave-port          616                       # Packet count per connected master and slave (bytes)
system.iobus.pkt_count_system.ruby.l1_cntrl3.sequencer.mem-master-port::total         2358                       # Packet count per connected master and slave (bytes)
system.iobus.pkt_count::total                    4406                       # Packet count per connected master and slave (bytes)
system.iobus.pkt_size_system.pc.south_bridge.io_apic.int_master::system.ruby.l1_cntrl0.sequencer.pio-slave-port            8                       # Cumulative packet size per connected master and slave (bytes)
system.iobus.pkt_size_system.pc.south_bridge.io_apic.int_master::system.ruby.l1_cntrl1.sequencer.pio-slave-port            4                       # Cumulative packet size per connected master and slave (bytes)
system.iobus.pkt_size_system.pc.south_bridge.io_apic.int_master::system.ruby.l1_cntrl2.sequencer.pio-slave-port            4                       # Cumulative packet size per connected master and slave (bytes)
system.iobus.pkt_size_system.pc.south_bridge.io_apic.int_master::system.ruby.l1_cntrl3.sequencer.pio-slave-port            4                       # Cumulative packet size per connected master and slave (bytes)
system.iobus.pkt_size_system.pc.south_bridge.io_apic.int_master::total           20                       # Cumulative packet size per connected master and slave (bytes)
system.iobus.pkt_size_system.ruby.l1_cntrl0.sequencer.mem-master-port::system.pc.south_bridge.io_apic.pio           28                       # Cumulative packet size per connected master and slave (bytes)
system.iobus.pkt_size_system.ruby.l1_cntrl0.sequencer.mem-master-port::system.pc.com_1.pio           65                       # Cumulative packet size per connected master and slave (bytes)
system.iobus.pkt_size_system.ruby.l1_cntrl0.sequencer.mem-master-port::system.ruby.l1_cntrl0.sequencer.pio-slave-port         1248                       # Cumulative packet size per connected master and slave (bytes)
system.iobus.pkt_size_system.ruby.l1_cntrl0.sequencer.mem-master-port::system.ruby.l1_cntrl1.sequencer.pio-slave-port            4                       # Cumulative packet size per connected master and slave (bytes)
system.iobus.pkt_size_system.ruby.l1_cntrl0.sequencer.mem-master-port::system.ruby.l1_cntrl3.sequencer.pio-slave-port            4                       # Cumulative packet size per connected master and slave (bytes)
system.iobus.pkt_size_system.ruby.l1_cntrl0.sequencer.mem-master-port::total         1349                       # Cumulative packet size per connected master and slave (bytes)
system.iobus.pkt_size_system.ruby.l1_cntrl1.sequencer.mem-master-port::system.pc.south_bridge.io_apic.pio           16                       # Cumulative packet size per connected master and slave (bytes)
system.iobus.pkt_size_system.ruby.l1_cntrl1.sequencer.mem-master-port::system.ruby.l1_cntrl1.sequencer.pio-slave-port         1232                       # Cumulative packet size per connected master and slave (bytes)
system.iobus.pkt_size_system.ruby.l1_cntrl1.sequencer.mem-master-port::system.ruby.l1_cntrl2.sequencer.pio-slave-port            4                       # Cumulative packet size per connected master and slave (bytes)
system.iobus.pkt_size_system.ruby.l1_cntrl1.sequencer.mem-master-port::total         1252                       # Cumulative packet size per connected master and slave (bytes)
system.iobus.pkt_size_system.ruby.l1_cntrl2.sequencer.mem-master-port::system.pc.south_bridge.io_apic.pio           16                       # Cumulative packet size per connected master and slave (bytes)
system.iobus.pkt_size_system.ruby.l1_cntrl2.sequencer.mem-master-port::system.ruby.l1_cntrl0.sequencer.pio-slave-port            4                       # Cumulative packet size per connected master and slave (bytes)
system.iobus.pkt_size_system.ruby.l1_cntrl2.sequencer.mem-master-port::system.ruby.l1_cntrl1.sequencer.pio-slave-port            4                       # Cumulative packet size per connected master and slave (bytes)
system.iobus.pkt_size_system.ruby.l1_cntrl2.sequencer.mem-master-port::system.ruby.l1_cntrl2.sequencer.pio-slave-port         1252                       # Cumulative packet size per connected master and slave (bytes)
system.iobus.pkt_size_system.ruby.l1_cntrl2.sequencer.mem-master-port::system.ruby.l1_cntrl3.sequencer.pio-slave-port            4                       # Cumulative packet size per connected master and slave (bytes)
system.iobus.pkt_size_system.ruby.l1_cntrl2.sequencer.mem-master-port::total         1280                       # Cumulative packet size per connected master and slave (bytes)
system.iobus.pkt_size_system.ruby.l1_cntrl3.sequencer.mem-master-port::system.pc.south_bridge.io_apic.pio           12                       # Cumulative packet size per connected master and slave (bytes)
system.iobus.pkt_size_system.ruby.l1_cntrl3.sequencer.mem-master-port::system.pc.com_1.pio          867                       # Cumulative packet size per connected master and slave (bytes)
system.iobus.pkt_size_system.ruby.l1_cntrl3.sequencer.mem-master-port::system.ruby.l1_cntrl0.sequencer.pio-slave-port            4                       # Cumulative packet size per connected master and slave (bytes)
system.iobus.pkt_size_system.ruby.l1_cntrl3.sequencer.mem-master-port::system.ruby.l1_cntrl3.sequencer.pio-slave-port         1232                       # Cumulative packet size per connected master and slave (bytes)
system.iobus.pkt_size_system.ruby.l1_cntrl3.sequencer.mem-master-port::total         2115                       # Cumulative packet size per connected master and slave (bytes)
system.iobus.pkt_size::total                     6016                       # Cumulative packet size per connected master and slave (bytes)
system.iobus.reqLayer8.occupancy                32496                       # Layer occupancy (ticks)
system.iobus.reqLayer8.utilization                0.0                       # Layer utilization (%)
system.iobus.reqLayer12.occupancy             1213500                       # Layer occupancy (ticks)
system.iobus.reqLayer12.utilization               0.0                       # Layer utilization (%)
system.iobus.reqLayer17.occupancy              843733                       # Layer occupancy (ticks)
system.iobus.reqLayer17.utilization               0.0                       # Layer utilization (%)
system.iobus.reqLayer18.occupancy              702500                       # Layer occupancy (ticks)
system.iobus.reqLayer18.utilization               0.0                       # Layer utilization (%)
system.iobus.reqLayer19.occupancy              705498                       # Layer occupancy (ticks)
system.iobus.reqLayer19.utilization               0.0                       # Layer utilization (%)
system.iobus.reqLayer20.occupancy              706499                       # Layer occupancy (ticks)
system.iobus.reqLayer20.utilization               0.0                       # Layer utilization (%)
system.iobus.respLayer0.occupancy                6000                       # Layer occupancy (ticks)
system.iobus.respLayer0.utilization               0.0                       # Layer utilization (%)
system.iobus.respLayer2.occupancy              594000                       # Layer occupancy (ticks)
system.iobus.respLayer2.utilization               0.0                       # Layer utilization (%)
system.iobus.respLayer4.occupancy              470000                       # Layer occupancy (ticks)
system.iobus.respLayer4.utilization               0.0                       # Layer utilization (%)
system.iobus.respLayer6.occupancy              481500                       # Layer occupancy (ticks)
system.iobus.respLayer6.utilization               0.0                       # Layer utilization (%)
system.iobus.respLayer8.occupancy             1985000                       # Layer occupancy (ticks)
system.iobus.respLayer8.utilization               0.0                       # Layer utilization (%)
system.pc.south_bridge.ide.disks.dma_read_full_pages            0                       # Number of full page size DMA reads (not PRD).
system.pc.south_bridge.ide.disks.dma_read_bytes            0                       # Number of bytes transfered via DMA reads (not PRD).
system.pc.south_bridge.ide.disks.dma_read_txs            0                       # Number of DMA read transactions (not PRD).
system.pc.south_bridge.ide.disks.dma_write_full_pages            0                       # Number of full page size DMA writes.
system.pc.south_bridge.ide.disks.dma_write_bytes            0                       # Number of bytes transfered via DMA writes.
system.pc.south_bridge.ide.disks.dma_write_txs            0                       # Number of DMA write transactions.
system.ruby.clk_domain.clock                      500                       # Clock period in ticks
system.ruby.delayHist::bucket_size                  4                       # delay histogram for all message
system.ruby.delayHist::max_bucket                  39                       # delay histogram for all message
system.ruby.delayHist::samples               51300303                       # delay histogram for all message
system.ruby.delayHist::mean                  0.954359                       # delay histogram for all message
system.ruby.delayHist::stdev                 2.592636                       # delay histogram for all message
system.ruby.delayHist                    |    45189660     88.09%     88.09% |        7494      0.01%     88.10% |     6101069     11.89%    100.00% |         514      0.00%    100.00% |        1554      0.00%    100.00% |           1      0.00%    100.00% |          11      0.00%    100.00% |           0      0.00%    100.00% |           0      0.00%    100.00% |           0      0.00%    100.00% # delay histogram for all message
system.ruby.delayHist::total                 51300303                       # delay histogram for all message
system.ruby.outstanding_req_hist_seqr::bucket_size            1                      
system.ruby.outstanding_req_hist_seqr::max_bucket            9                      
system.ruby.outstanding_req_hist_seqr::samples    936549610                      
system.ruby.outstanding_req_hist_seqr::mean     1.000000                      
system.ruby.outstanding_req_hist_seqr::gmean     1.000000                      
system.ruby.outstanding_req_hist_seqr::stdev     0.000504                      
system.ruby.outstanding_req_hist_seqr    |           0      0.00%      0.00% |   936549372    100.00%    100.00% |         238      0.00%    100.00% |           0      0.00%    100.00% |           0      0.00%    100.00% |           0      0.00%    100.00% |           0      0.00%    100.00% |           0      0.00%    100.00% |           0      0.00%    100.00% |           0      0.00%    100.00%
system.ruby.outstanding_req_hist_seqr::total    936549610                      
system.ruby.latency_hist_seqr::bucket_size          512                      
system.ruby.latency_hist_seqr::max_bucket         5119                      
system.ruby.latency_hist_seqr::samples      936549610                      
system.ruby.latency_hist_seqr::mean          1.597411                      
system.ruby.latency_hist_seqr::gmean         1.035766                      
system.ruby.latency_hist_seqr::stdev        10.900921                      
system.ruby.latency_hist_seqr            |   936460393     99.99%     99.99% |       79937      0.01%    100.00% |        8273      0.00%    100.00% |         929      0.00%    100.00% |          75      0.00%    100.00% |           3      0.00%    100.00% |           0      0.00%    100.00% |           0      0.00%    100.00% |           0      0.00%    100.00% |           0      0.00%    100.00%
system.ruby.latency_hist_seqr::total        936549610                      
system.ruby.hit_latency_hist_seqr::bucket_size            1                      
system.ruby.hit_latency_hist_seqr::max_bucket            9                      
system.ruby.hit_latency_hist_seqr::samples    927333057                      
system.ruby.hit_latency_hist_seqr::mean             1                      
system.ruby.hit_latency_hist_seqr::gmean            1                      
[...]
system.ruby.DMA_Controller.Data          |           2    100.00%    100.00% |           0      0.00%    100.00%
system.ruby.DMA_Controller.Data::total              2                      
system.ruby.DMA_Controller.Ack           |         128    100.00%    100.00% |           0      0.00%    100.00%
system.ruby.DMA_Controller.Ack::total             128                      
system.ruby.DMA_Controller.READY.ReadRequest |           2    100.00%    100.00% |           0      0.00%    100.00%
system.ruby.DMA_Controller.READY.ReadRequest::total            2                      
system.ruby.DMA_Controller.READY.WriteRequest |         128    100.00%    100.00% |           0      0.00%    100.00%
system.ruby.DMA_Controller.READY.WriteRequest::total          128                      
system.ruby.DMA_Controller.BUSY_RD.Data  |           2    100.00%    100.00% |           0      0.00%    100.00%
system.ruby.DMA_Controller.BUSY_RD.Data::total            2                      
system.ruby.DMA_Controller.BUSY_WR.Ack   |         128    100.00%    100.00% |           0      0.00%    100.00%
system.ruby.DMA_Controller.BUSY_WR.Ack::total          128                      
system.ruby.L1Cache_Controller.Load      |   108078433     96.51%     96.51% |      708237      0.63%     97.14% |     2718202      2.43%     99.57% |      481303      0.43%    100.00%
system.ruby.L1Cache_Controller.Load::total    111986175                      
system.ruby.L1Cache_Controller.Ifetch    |   765172915     97.22%     97.22% |     3467780      0.44%     97.66% |    16218481      2.06%     99.72% |     2210774      0.28%    100.00%
system.ruby.L1Cache_Controller.Ifetch::total    787069950                      
system.ruby.L1Cache_Controller.Store     |    58755412     95.16%     95.16% |      555198      0.90%     96.06% |     2065221      3.34%     99.40% |      369711      0.60%    100.00%
system.ruby.L1Cache_Controller.Store::total     61745542                      
system.ruby.L1Cache_Controller.Inv       |       44678     26.53%     26.53% |       37357     22.18%     48.71% |       46621     27.68%     76.39% |       39768     23.61%    100.00%
system.ruby.L1Cache_Controller.Inv::total       168424                      
system.ruby.L1Cache_Controller.L1_Replacement |     9068585     97.36%     97.36% |       43311      0.46%     97.82% |      160515      1.72%     99.55% |       42270      0.45%    100.00%
system.ruby.L1Cache_Controller.L1_Replacement::total      9314681                      
system.ruby.L1Cache_Controller.Fwd_GETX  |        1044     25.04%     25.04% |        1016     24.36%     49.40% |        1169     28.03%     77.43% |         941     22.57%    100.00%
system.ruby.L1Cache_Controller.Fwd_GETX::total         4170                      
system.ruby.L1Cache_Controller.Fwd_GETS  |        2930     18.91%     18.91% |        5198     33.55%     52.47% |        3416     22.05%     74.52% |        3948     25.48%    100.00%
system.ruby.L1Cache_Controller.Fwd_GETS::total        15492                      
system.ruby.L1Cache_Controller.Data      |        1198     47.54%     47.54% |         258     10.24%     57.78% |         623     24.72%     82.50% |         441     17.50%    100.00%
system.ruby.L1Cache_Controller.Data::total         2520                      
system.ruby.L1Cache_Controller.Data_Exclusive |     5708148     98.06%     98.06% |       15321      0.26%     98.33% |       81488      1.40%     99.73% |       15834      0.27%    100.00%
system.ruby.L1Cache_Controller.Data_Exclusive::total      5820791                      
system.ruby.L1Cache_Controller.DataS_fromL1 |        2382     15.38%     15.38% |        3403     21.97%     37.34% |        5976     38.57%     75.92% |        3731     24.08%    100.00%
system.ruby.L1Cache_Controller.DataS_fromL1::total        15492                      
system.ruby.L1Cache_Controller.Data_all_Acks |     3381057     94.37%     94.37% |       50598      1.41%     95.79% |       99316      2.77%     98.56% |       51678      1.44%    100.00%
system.ruby.L1Cache_Controller.Data_all_Acks::total      3582649                      
system.ruby.L1Cache_Controller.Ack       |        6821     43.65%     43.65% |        2707     17.32%     60.97% |        3255     20.83%     81.80% |        2844     18.20%    100.00%
system.ruby.L1Cache_Controller.Ack::total        15627                      
system.ruby.L1Cache_Controller.Ack_all   |        4059     36.76%     36.76% |        2018     18.27%     55.03% |        2740     24.81%     79.84% |        2226     20.16%    100.00%
system.ruby.L1Cache_Controller.Ack_all::total        11043                      
system.ruby.L1Cache_Controller.WB_Ack    |     9005564     98.50%     98.50% |       14256      0.16%     98.66% |      107660      1.18%     99.83% |       15278      0.17%    100.00%
system.ruby.L1Cache_Controller.WB_Ack::total      9142758                      
system.ruby.L1Cache_Controller.NP.Load   |     5723638     98.01%     98.01% |       15023      0.26%     98.27% |       85197      1.46%     99.73% |       15805      0.27%    100.00%
system.ruby.L1Cache_Controller.NP.Load::total      5839663                      
system.ruby.L1Cache_Controller.NP.Ifetch |       42989     34.56%     34.56% |       20355     16.36%     50.93% |       42062     33.82%     84.74% |       18976     15.26%    100.00%
system.ruby.L1Cache_Controller.NP.Ifetch::total       124382                      
system.ruby.L1Cache_Controller.NP.Store  |     3301958     98.53%     98.53% |        8114      0.24%     98.77% |       33257      0.99%     99.76% |        8011      0.24%    100.00%
system.ruby.L1Cache_Controller.NP.Store::total      3351340                      
system.ruby.L1Cache_Controller.NP.Inv    |       14659     38.00%     38.00% |        5461     14.16%     52.16% |       13737     35.61%     87.77% |        4719     12.23%    100.00%
system.ruby.L1Cache_Controller.NP.Inv::total        38576                      
system.ruby.L1Cache_Controller.I.Load    |        2577      9.80%      9.80% |        7799     29.65%     39.44% |        7898     30.02%     69.47% |        8031     30.53%    100.00%
system.ruby.L1Cache_Controller.I.Load::total        26305                      
system.ruby.L1Cache_Controller.I.Ifetch  |       21056     31.95%     31.95% |       14172     21.51%     53.46% |       14407     21.86%     75.33% |       16258     24.67%    100.00%
system.ruby.L1Cache_Controller.I.Ifetch::total        65893                      
system.ruby.L1Cache_Controller.I.Store   |         565      4.07%      4.07% |        4117     29.69%     33.77% |        4581     33.04%     66.80% |        4603     33.20%    100.00%
system.ruby.L1Cache_Controller.I.Store::total        13866                      
system.ruby.L1Cache_Controller.I.L1_Replacement |        6686     24.62%     24.62% |        6537     24.07%     48.70% |        7164     26.38%     75.08% |        6766     24.92%    100.00%
system.ruby.L1Cache_Controller.I.L1_Replacement::total        27153                      
system.ruby.L1Cache_Controller.S.Load    |      151009     28.13%     28.13% |       94554     17.62%     45.75% |      214665     39.99%     85.74% |       76527     14.26%    100.00%
system.ruby.L1Cache_Controller.S.Load::total       536755                      
system.ruby.L1Cache_Controller.S.Ifetch  |   765108869     97.23%     97.23% |     3433253      0.44%     97.67% |    16162011      2.05%     99.72% |     2175540      0.28%    100.00%
system.ruby.L1Cache_Controller.S.Ifetch::total    786879673                      
system.ruby.L1Cache_Controller.S.Store   |        2863     33.58%     33.58% |        1760     20.64%     54.22% |        2118     24.84%     79.06% |        1785     20.94%    100.00%
system.ruby.L1Cache_Controller.S.Store::total         8526                      
system.ruby.L1Cache_Controller.S.Inv     |       26037     26.59%     26.59% |       23101     23.60%     50.19% |       23700     24.21%     74.40% |       25067     25.60%    100.00%
system.ruby.L1Cache_Controller.S.Inv::total        97905                      
system.ruby.L1Cache_Controller.S.L1_Replacement |       56335     38.91%     38.91% |       22518     15.55%     54.47% |       45691     31.56%     86.03% |       20226     13.97%    100.00%
system.ruby.L1Cache_Controller.S.L1_Replacement::total       144770                      
system.ruby.L1Cache_Controller.E.Load    |    46281074     98.66%     98.66% |      114693      0.24%     98.90% |      422563      0.90%     99.80% |       93291      0.20%    100.00%
system.ruby.L1Cache_Controller.E.Load::total     46911621                      
system.ruby.L1Cache_Controller.E.Store   |     2770953     97.94%     97.94% |        3082      0.11%     98.05% |       51662      1.83%     99.88% |        3444      0.12%    100.00%
system.ruby.L1Cache_Controller.E.Store::total      2829141                      
system.ruby.L1Cache_Controller.E.Inv     |        2533     20.03%     20.03% |        3194     25.26%     45.29% |        3019     23.88%     69.17% |        3898     30.83%    100.00%
system.ruby.L1Cache_Controller.E.Inv::total        12644                      
system.ruby.L1Cache_Controller.E.L1_Replacement |     2933476     98.78%     98.78% |        5065      0.17%     98.95% |       25180      0.85%     99.80% |        5889      0.20%    100.00%
system.ruby.L1Cache_Controller.E.L1_Replacement::total      2969610                      
system.ruby.L1Cache_Controller.E.Fwd_GETX |         380     40.82%     40.82% |         248     26.64%     67.45% |          99     10.63%     78.09% |         204     21.91%    100.00%
system.ruby.L1Cache_Controller.E.Fwd_GETX::total          931                      
system.ruby.L1Cache_Controller.E.Fwd_GETS |         799      9.64%      9.64% |        3585     43.24%     52.88% |        1504     18.14%     71.03% |        2402     28.97%    100.00%
system.ruby.L1Cache_Controller.E.Fwd_GETS::total         8290                      
system.ruby.L1Cache_Controller.M.Load    |    55920135     95.31%     95.31% |      476168      0.81%     96.12% |     1987879      3.39%     99.51% |      287649      0.49%    100.00%
system.ruby.L1Cache_Controller.M.Load::total     58671831                      
system.ruby.L1Cache_Controller.M.Store   |    52679073     94.84%     94.84% |      538125      0.97%     95.81% |     1973603      3.55%     99.37% |      351868      0.63%    100.00%
system.ruby.L1Cache_Controller.M.Store::total     55542669                      
system.ruby.L1Cache_Controller.M.Inv     |        1447      7.50%      7.50% |        5601     29.03%     36.53% |        6164     31.94%     68.47% |        6084     31.53%    100.00%
system.ruby.L1Cache_Controller.M.Inv::total        19296                      
system.ruby.L1Cache_Controller.M.L1_Replacement |     6072088     98.36%     98.36% |        9191      0.15%     98.51% |       82480      1.34%     99.85% |        9389      0.15%    100.00%
system.ruby.L1Cache_Controller.M.L1_Replacement::total      6173148                      
system.ruby.L1Cache_Controller.M.Fwd_GETX |         664     20.50%     20.50% |         768     23.71%     44.21% |        1070     33.03%     77.25% |         737     22.75%    100.00%
system.ruby.L1Cache_Controller.M.Fwd_GETX::total         3239                      
system.ruby.L1Cache_Controller.M.Fwd_GETS |        2131     29.59%     29.59% |        1613     22.40%     51.99% |        1912     26.55%     78.53% |        1546     21.47%    100.00%
system.ruby.L1Cache_Controller.M.Fwd_GETS::total         7202                      
system.ruby.L1Cache_Controller.IS.Data_Exclusive |     5708148     98.06%     98.06% |       15321      0.26%     98.33% |       81488      1.40%     99.73% |       15834      0.27%    100.00%
system.ruby.L1Cache_Controller.IS.Data_Exclusive::total      5820791                      
system.ruby.L1Cache_Controller.IS.DataS_fromL1 |        2382     15.38%     15.38% |        3403     21.97%     37.34% |        5976     38.57%     75.92% |        3731     24.08%    100.00%
system.ruby.L1Cache_Controller.IS.DataS_fromL1::total        15492                      
system.ruby.L1Cache_Controller.IS.Data_all_Acks |       79730     36.25%     36.25% |       38625     17.56%     53.81% |       62100     28.23%     82.04% |       39505     17.96%    100.00%
system.ruby.L1Cache_Controller.IS.Data_all_Acks::total       219960                      
system.ruby.L1Cache_Controller.IM.Data   |        1198     47.54%     47.54% |         258     10.24%     57.78% |         623     24.72%     82.50% |         441     17.50%    100.00%
system.ruby.L1Cache_Controller.IM.Data::total         2520                      
system.ruby.L1Cache_Controller.IM.Data_all_Acks |     3301327     98.18%     98.18% |       11973      0.36%     98.53% |       37216      1.11%     99.64% |       12173      0.36%    100.00%
system.ruby.L1Cache_Controller.IM.Data_all_Acks::total      3362689                      
system.ruby.L1Cache_Controller.SM.Inv    |           2     66.67%     66.67% |           0      0.00%     66.67% |           1     33.33%    100.00% |           0      0.00%    100.00%
system.ruby.L1Cache_Controller.SM.Inv::total            3                      
system.ruby.L1Cache_Controller.SM.Ack    |        6821     43.65%     43.65% |        2707     17.32%     60.97% |        3255     20.83%     81.80% |        2844     18.20%    100.00%
system.ruby.L1Cache_Controller.SM.Ack::total        15627                      
system.ruby.L1Cache_Controller.SM.Ack_all |        4059     36.76%     36.76% |        2018     18.27%     55.03% |        2740     24.81%     79.84% |        2226     20.16%    100.00%
system.ruby.L1Cache_Controller.SM.Ack_all::total        11043                      
system.ruby.L1Cache_Controller.M_I.Ifetch |           1     50.00%     50.00% |           0      0.00%     50.00% |           1     50.00%    100.00% |           0      0.00%    100.00%
system.ruby.L1Cache_Controller.M_I.Ifetch::total            2                      
system.ruby.L1Cache_Controller.M_I.WB_Ack |     9005564     98.50%     98.50% |       14256      0.16%     98.66% |      107660      1.18%     99.83% |       15278      0.17%    100.00%
system.ruby.L1Cache_Controller.M_I.WB_Ack::total      9142758                      
system.ruby.L2Cache_Controller.L1_GET_INSTR       190276      0.00%      0.00%
system.ruby.L2Cache_Controller.L1_GETS        5866325      0.00%      0.00%
system.ruby.L2Cache_Controller.L1_GETX        3365218      0.00%      0.00%
system.ruby.L2Cache_Controller.L1_UPGRADE         8526      0.00%      0.00%
system.ruby.L2Cache_Controller.L1_PUTX        9142758      0.00%      0.00%
system.ruby.L2Cache_Controller.L2_Replacement      1646985      0.00%      0.00%
system.ruby.L2Cache_Controller.L2_Replacement_clean      1164930      0.00%      0.00%
system.ruby.L2Cache_Controller.Mem_Data       2811961      0.00%      0.00%
system.ruby.L2Cache_Controller.Mem_Ack        2811917      0.00%      0.00%
system.ruby.L2Cache_Controller.WB_Data          26498      0.00%      0.00%
system.ruby.L2Cache_Controller.WB_Data_clean         8290      0.00%      0.00%
system.ruby.L2Cache_Controller.Ack              61021      0.00%      0.00%
system.ruby.L2Cache_Controller.Ack_all          69960      0.00%      0.00%
system.ruby.L2Cache_Controller.Unblock          15492      0.00%      0.00%
system.ruby.L2Cache_Controller.Exclusive_Unblock      9194523      0.00%      0.00%
system.ruby.L2Cache_Controller.MEM_Inv              4      0.00%      0.00%
system.ruby.L2Cache_Controller.NP.L1_GET_INSTR        53615      0.00%      0.00%
system.ruby.L2Cache_Controller.NP.L1_GETS      1668700      0.00%      0.00%
system.ruby.L2Cache_Controller.NP.L1_GETX      1089646      0.00%      0.00%
system.ruby.L2Cache_Controller.SS.L1_GET_INSTR       136635      0.00%      0.00%
system.ruby.L2Cache_Controller.SS.L1_GETS        29681      0.00%      0.00%
system.ruby.L2Cache_Controller.SS.L1_GETX         2520      0.00%      0.00%
system.ruby.L2Cache_Controller.SS.L1_UPGRADE         8523      0.00%      0.00%
system.ruby.L2Cache_Controller.SS.L2_Replacement         1026      0.00%      0.00%
system.ruby.L2Cache_Controller.SS.L2_Replacement_clean        56290      0.00%      0.00%
system.ruby.L2Cache_Controller.M.L1_GET_INSTR           21      0.00%      0.00%
system.ruby.L2Cache_Controller.M.L1_GETS      4152093      0.00%      0.00%
system.ruby.L2Cache_Controller.M.L1_GETX      2268873      0.00%      0.00%
system.ruby.L2Cache_Controller.M.L2_Replacement      1643207      0.00%      0.00%
system.ruby.L2Cache_Controller.M.L2_Replacement_clean      1079454      0.00%      0.00%
system.ruby.L2Cache_Controller.MT.L1_GETS        15492      0.00%      0.00%
system.ruby.L2Cache_Controller.MT.L1_GETX         4170      0.00%      0.00%
system.ruby.L2Cache_Controller.MT.L1_PUTX      9142758      0.00%      0.00%
system.ruby.L2Cache_Controller.MT.L2_Replacement         2752      0.00%      0.00%
system.ruby.L2Cache_Controller.MT.L2_Replacement_clean        29186      0.00%      0.00%
system.ruby.L2Cache_Controller.MT.MEM_Inv            2      0.00%      0.00%
system.ruby.L2Cache_Controller.M_I.L1_GET_INSTR            1      0.00%      0.00%
system.ruby.L2Cache_Controller.M_I.L1_GETS            1      0.00%      0.00%
system.ruby.L2Cache_Controller.M_I.L1_GETX            2      0.00%      0.00%
system.ruby.L2Cache_Controller.M_I.Mem_Ack      2811917      0.00%      0.00%
system.ruby.L2Cache_Controller.MT_I.WB_Data         1691      0.00%      0.00%
system.ruby.L2Cache_Controller.MT_I.Ack_all         1063      0.00%      0.00%
system.ruby.L2Cache_Controller.MT_I.MEM_Inv            2      0.00%      0.00%
system.ruby.L2Cache_Controller.MCT_I.WB_Data        17605      0.00%      0.00%
system.ruby.L2Cache_Controller.MCT_I.Ack_all        11581      0.00%      0.00%
system.ruby.L2Cache_Controller.I_I.Ack          59722      0.00%      0.00%
system.ruby.L2Cache_Controller.I_I.Ack_all        56290      0.00%      0.00%
system.ruby.L2Cache_Controller.S_I.Ack           1299      0.00%      0.00%
system.ruby.L2Cache_Controller.S_I.Ack_all         1026      0.00%      0.00%
system.ruby.L2Cache_Controller.ISS.L1_GETS            2      0.00%      0.00%
system.ruby.L2Cache_Controller.ISS.Mem_Data      1668698      0.00%      0.00%
system.ruby.L2Cache_Controller.IS.L1_GET_INSTR            4      0.00%      0.00%
system.ruby.L2Cache_Controller.IS.Mem_Data        53617      0.00%      0.00%
system.ruby.L2Cache_Controller.IM.Mem_Data      1089646      0.00%      0.00%
system.ruby.L2Cache_Controller.SS_MB.L1_GETS           84      0.00%      0.00%
system.ruby.L2Cache_Controller.SS_MB.L1_GETX            1      0.00%      0.00%
system.ruby.L2Cache_Controller.SS_MB.L1_UPGRADE            3      0.00%      0.00%
system.ruby.L2Cache_Controller.SS_MB.Exclusive_Unblock        11043      0.00%      0.00%
system.ruby.L2Cache_Controller.MT_MB.L1_GETS          269      0.00%      0.00%
system.ruby.L2Cache_Controller.MT_MB.L1_GETX            5      0.00%      0.00%
system.ruby.L2Cache_Controller.MT_MB.Exclusive_Unblock      9183480      0.00%      0.00%
system.ruby.L2Cache_Controller.MT_IIB.L1_GETS            3      0.00%      0.00%
system.ruby.L2Cache_Controller.MT_IIB.L1_GETX            1      0.00%      0.00%
system.ruby.L2Cache_Controller.MT_IIB.WB_Data         7187      0.00%      0.00%
system.ruby.L2Cache_Controller.MT_IIB.WB_Data_clean         8271      0.00%      0.00%
system.ruby.L2Cache_Controller.MT_IIB.Unblock           34      0.00%      0.00%
system.ruby.L2Cache_Controller.MT_IB.WB_Data           15      0.00%      0.00%
system.ruby.L2Cache_Controller.MT_IB.WB_Data_clean           19      0.00%      0.00%
system.ruby.L2Cache_Controller.MT_SB.Unblock        15458      0.00%      0.00%

---------- End Simulation Statistics   ----------
