
---------- Begin Simulation Statistics ----------
sim_seconds                                  1.202337                       # Number of seconds simulated
sim_ticks                                1202337440500                       # Number of ticks simulated
final_tick                               53759046001001                       # Number of ticks from beginning of simulation (restored from checkpoints and never reset)
sim_freq                                 1000000000000                       # Frequency of simulated ticks
host_inst_rate                                 136607                       # Simulator instruction rate (inst/s)
host_op_rate                                   182777                       # Simulator op (including micro ops) rate (op/s)
host_tick_rate                              303305508                       # Simulator tick rate (ticks/s)
host_mem_usage                                1805356                       # Number of bytes of host memory used
host_seconds                                  3964.11                       # Real time elapsed on the host
sim_insts                                   541526731                       # Number of instructions simulated
sim_ops                                     724547662                       # Number of ops (including micro ops) simulated
system.voltage_domain.voltage                       1                       # Voltage in Volts
system.clk_domain.clock                          1000                       # Clock period in ticks
system.mem_ctrls.bytes_read::ruby.dir_cntrl0    171109952                       # Number of bytes read from this memory
system.mem_ctrls.bytes_read::total          171109952                       # Number of bytes read from this memory
system.mem_ctrls.bytes_written::ruby.dir_cntrl0    100885376                       # Number of bytes written to this memory
system.mem_ctrls.bytes_written::total       100885376                       # Number of bytes written to this memory
system.mem_ctrls.num_reads::ruby.dir_cntrl0      2673593                       # Number of read requests responded to by this memory
system.mem_ctrls.num_reads::total             2673593                       # Number of read requests responded to by this memory
system.mem_ctrls.num_writes::ruby.dir_cntrl0      1576334                       # Number of write requests responded to by this memory
system.mem_ctrls.num_writes::total            1576334                       # Number of write requests responded to by this memory
system.mem_ctrls.bw_read::ruby.dir_cntrl0    142314417                       # Total read bandwidth from this memory (bytes/s)
system.mem_ctrls.bw_read::total             142314417                       # Total read bandwidth from this memory (bytes/s)
system.mem_ctrls.bw_write::ruby.dir_cntrl0     83907706                       # Write bandwidth from this memory (bytes/s)
system.mem_ctrls.bw_write::total             83907706                       # Write bandwidth from this memory (bytes/s)
system.mem_ctrls.bw_total::ruby.dir_cntrl0    226222123                       # Total bandwidth to/from this memory (bytes/s)
system.mem_ctrls.bw_total::total            226222123                       # Total bandwidth to/from this memory (bytes/s)
system.mem_ctrls.readReqs                     2673593                       # Number of read requests accepted
system.mem_ctrls.writeReqs                    1576334                       # Number of write requests accepted
system.mem_ctrls.readBursts                   2673593                       # Number of DRAM read bursts, including those serviced by the write queue
system.mem_ctrls.writeBursts                  1576334                       # Number of DRAM write bursts, including those merged in the write queue
system.mem_ctrls.bytesReadDRAM              171080320                       # Total number of bytes read from DRAM
system.mem_ctrls.bytesReadWrQ                   29632                       # Total number of bytes read from write queue
system.mem_ctrls.bytesWritten               100884864                       # Total number of bytes written to DRAM
system.mem_ctrls.bytesReadSys               171109952                       # Total read bytes from the system interface side
system.mem_ctrls.bytesWrittenSys            100885376                       # Total written bytes from the system interface side
system.mem_ctrls.servicedByWrQ                    463                       # Number of DRAM read bursts serviced by the write queue
system.mem_ctrls.mergedWrBursts                     1                       # Number of DRAM write bursts merged with an existing one
system.mem_ctrls.neitherReadNorWriteReqs            0                       # Number of requests that are neither read nor write
system.mem_ctrls.perBankRdBursts::0            169201                       # Per bank write bursts
system.mem_ctrls.perBankRdBursts::1            171184                       # Per bank write bursts
system.mem_ctrls.perBankRdBursts::2            164268                       # Per bank write bursts
system.mem_ctrls.perBankRdBursts::3            165622                       # Per bank write bursts
system.mem_ctrls.perBankRdBursts::4            166983                       # Per bank write bursts
system.mem_ctrls.perBankRdBursts::5            166707                       # Per bank write bursts
system.mem_ctrls.perBankRdBursts::6            171571                       # Per bank write bursts
system.mem_ctrls.perBankRdBursts::7            165898                       # Per bank write bursts
system.mem_ctrls.perBankRdBursts::8            166782                       # Per bank write bursts
system.mem_ctrls.perBankRdBursts::9            166851                       # Per bank write bursts
system.mem_ctrls.perBankRdBursts::10           165816                       # Per bank write bursts
system.mem_ctrls.perBankRdBursts::11           164890                       # Per bank write bursts
system.mem_ctrls.perBankRdBursts::12           165080                       # Per bank write bursts
system.mem_ctrls.perBankRdBursts::13           167237                       # Per bank write bursts
system.mem_ctrls.perBankRdBursts::14           166762                       # Per bank write bursts
system.mem_ctrls.perBankRdBursts::15           168278                       # Per bank write bursts
system.mem_ctrls.perBankWrBursts::0             99438                       # Per bank write bursts
system.mem_ctrls.perBankWrBursts::1            102208                       # Per bank write bursts
system.mem_ctrls.perBankWrBursts::2             97150                       # Per bank write bursts
system.mem_ctrls.perBankWrBursts::3             97259                       # Per bank write bursts
system.mem_ctrls.perBankWrBursts::4             97467                       # Per bank write bursts
system.mem_ctrls.perBankWrBursts::5             98723                       # Per bank write bursts
system.mem_ctrls.perBankWrBursts::6            101538                       # Per bank write bursts
system.mem_ctrls.perBankWrBursts::7             97679                       # Per bank write bursts
system.mem_ctrls.perBankWrBursts::8             99165                       # Per bank write bursts
system.mem_ctrls.perBankWrBursts::9             98419                       # Per bank write bursts
system.mem_ctrls.perBankWrBursts::10            98254                       # Per bank write bursts
system.mem_ctrls.perBankWrBursts::11            97455                       # Per bank write bursts
system.mem_ctrls.perBankWrBursts::12            97707                       # Per bank write bursts
system.mem_ctrls.perBankWrBursts::13            97997                       # Per bank write bursts
system.mem_ctrls.perBankWrBursts::14            98115                       # Per bank write bursts
system.mem_ctrls.perBankWrBursts::15            97752                       # Per bank write bursts
system.mem_ctrls.numRdRetry                         0                       # Number of times read queue was full causing retry
system.mem_ctrls.numWrRetry                         0                       # Number of times write queue was full causing retry
system.mem_ctrls.totGap                  1202337369500                       # Total gap between requests
system.mem_ctrls.readPktSize::0                     0                       # Read request sizes (log2)
system.mem_ctrls.readPktSize::1                     0                       # Read request sizes (log2)
system.mem_ctrls.readPktSize::2                     0                       # Read request sizes (log2)
system.mem_ctrls.readPktSize::3                     0                       # Read request sizes (log2)
system.mem_ctrls.readPktSize::4                     0                       # Read request sizes (log2)
system.mem_ctrls.readPktSize::5                     0                       # Read request sizes (log2)
system.mem_ctrls.readPktSize::6               2673593                       # Read request sizes (log2)
system.mem_ctrls.writePktSize::0                    0                       # Write request sizes (log2)
system.mem_ctrls.writePktSize::1                    0                       # Write request sizes (log2)
system.mem_ctrls.writePktSize::2                    0                       # Write request sizes (log2)
system.mem_ctrls.writePktSize::3                    0                       # Write request sizes (log2)
system.mem_ctrls.writePktSize::4                    0                       # Write request sizes (log2)
system.mem_ctrls.writePktSize::5                    0                       # Write request sizes (log2)
system.mem_ctrls.writePktSize::6              1576334                       # Write request sizes (log2)
system.mem_ctrls.rdQLenPdf::0                 2662556                       # What read queue length does an incoming req see
system.mem_ctrls.rdQLenPdf::1                   10566                       # What read queue length does an incoming req see
system.mem_ctrls.rdQLenPdf::2                       8                       # What read queue length does an incoming req see
system.mem_ctrls.rdQLenPdf::3                       0                       # What read queue length does an incoming req see
system.mem_ctrls.rdQLenPdf::4                       0                       # What read queue length does an incoming req see
system.mem_ctrls.rdQLenPdf::5                       0                       # What read queue length does an incoming req see
system.mem_ctrls.rdQLenPdf::6                       0                       # What read queue length does an incoming req see
system.mem_ctrls.rdQLenPdf::7                       0                       # What read queue length does an incoming req see
system.mem_ctrls.rdQLenPdf::8                       0                       # What read queue length does an incoming req see
system.mem_ctrls.rdQLenPdf::9                       0                       # What read queue length does an incoming req see
system.mem_ctrls.rdQLenPdf::10                      0                       # What read queue length does an incoming req see
system.mem_ctrls.rdQLenPdf::11                      0                       # What read queue length does an incoming req see
system.mem_ctrls.rdQLenPdf::12                      0                       # What read queue length does an incoming req see
system.mem_ctrls.rdQLenPdf::13                      0                       # What read queue length does an incoming req see
system.mem_ctrls.rdQLenPdf::14                      0                       # What read queue length does an incoming req see
system.mem_ctrls.rdQLenPdf::15                      0                       # What read queue length does an incoming req see
system.mem_ctrls.rdQLenPdf::16                      0                       # What read queue length does an incoming req see
system.mem_ctrls.rdQLenPdf::17                      0                       # What read queue length does an incoming req see
system.mem_ctrls.rdQLenPdf::18                      0                       # What read queue length does an incoming req see
system.mem_ctrls.rdQLenPdf::19                      0                       # What read queue length does an incoming req see
system.mem_ctrls.rdQLenPdf::20                      0                       # What read queue length does an incoming req see
system.mem_ctrls.rdQLenPdf::21                      0                       # What read queue length does an incoming req see
system.mem_ctrls.rdQLenPdf::22                      0                       # What read queue length does an incoming req see
system.mem_ctrls.rdQLenPdf::23                      0                       # What read queue length does an incoming req see
system.mem_ctrls.rdQLenPdf::24                      0                       # What read queue length does an incoming req see
system.mem_ctrls.rdQLenPdf::25                      0                       # What read queue length does an incoming req see
system.mem_ctrls.rdQLenPdf::26                      0                       # What read queue length does an incoming req see
system.mem_ctrls.rdQLenPdf::27                      0                       # What read queue length does an incoming req see
system.mem_ctrls.rdQLenPdf::28                      0                       # What read queue length does an incoming req see
system.mem_ctrls.rdQLenPdf::29                      0                       # What read queue length does an incoming req see
system.mem_ctrls.rdQLenPdf::30                      0                       # What read queue length does an incoming req see
system.mem_ctrls.rdQLenPdf::31                      0                       # What read queue length does an incoming req see
system.mem_ctrls.wrQLenPdf::0                       0                       # What write queue length does an incoming req see
system.mem_ctrls.wrQLenPdf::1                       0                       # What write queue length does an incoming req see
system.mem_ctrls.wrQLenPdf::2                       0                       # What write queue length does an incoming req see
system.mem_ctrls.wrQLenPdf::3                       0                       # What write queue length does an incoming req see
system.mem_ctrls.wrQLenPdf::4                       0                       # What write queue length does an incoming req see
system.mem_ctrls.wrQLenPdf::5                       0                       # What write queue length does an incoming req see
system.mem_ctrls.wrQLenPdf::6                       0                       # What write queue length does an incoming req see
system.mem_ctrls.wrQLenPdf::7                       0                       # What write queue length does an incoming req see
system.mem_ctrls.wrQLenPdf::8                       0                       # What write queue length does an incoming req see
system.mem_ctrls.wrQLenPdf::9                       0                       # What write queue length does an incoming req see
system.mem_ctrls.wrQLenPdf::10                      0                       # What write queue length does an incoming req see
system.mem_ctrls.wrQLenPdf::11                      0                       # What write queue length does an incoming req see
system.mem_ctrls.wrQLenPdf::12                      0                       # What write queue length does an incoming req see
system.mem_ctrls.wrQLenPdf::13                      0                       # What write queue length does an incoming req see
system.mem_ctrls.wrQLenPdf::14                      0                       # What write queue length does an incoming req see
system.mem_ctrls.wrQLenPdf::15                   1093                       # What write queue length does an incoming req see
system.mem_ctrls.wrQLenPdf::16                   1250                       # What write queue length does an incoming req see
system.mem_ctrls.wrQLenPdf::17                  97151                       # What write queue length does an incoming req see
system.mem_ctrls.wrQLenPdf::18                  98439                       # What write queue length does an incoming req see
system.mem_ctrls.wrQLenPdf::19                  98459                       # What write queue length does an incoming req see
system.mem_ctrls.wrQLenPdf::20                  98471                       # What write queue length does an incoming req see
system.mem_ctrls.wrQLenPdf::21                  98494                       # What write queue length does an incoming req see
system.mem_ctrls.wrQLenPdf::22                  98475                       # What write queue length does an incoming req see
system.mem_ctrls.wrQLenPdf::23                  98479                       # What write queue length does an incoming req see
system.mem_ctrls.wrQLenPdf::24                  98505                       # What write queue length does an incoming req see
system.mem_ctrls.wrQLenPdf::25                  98502                       # What write queue length does an incoming req see
system.mem_ctrls.wrQLenPdf::26                  98472                       # What write queue length does an incoming req see
system.mem_ctrls.wrQLenPdf::27                  98463                       # What write queue length does an incoming req see
system.mem_ctrls.wrQLenPdf::28                  98437                       # What write queue length does an incoming req see
system.mem_ctrls.wrQLenPdf::29                  98420                       # What write queue length does an incoming req see
system.mem_ctrls.wrQLenPdf::30                  98423                       # What write queue length does an incoming req see
system.mem_ctrls.wrQLenPdf::31                  98406                       # What write queue length does an incoming req see
system.mem_ctrls.wrQLenPdf::32                  98387                       # What write queue length does an incoming req see
system.mem_ctrls.wrQLenPdf::33                      7                       # What write queue length does an incoming req see
system.mem_ctrls.wrQLenPdf::34                      0                       # What write queue length does an incoming req see
system.mem_ctrls.wrQLenPdf::35                      0                       # What write queue length does an incoming req see
system.mem_ctrls.wrQLenPdf::36                      0                       # What write queue length does an incoming req see
system.mem_ctrls.wrQLenPdf::37                      0                       # What write queue length does an incoming req see
system.mem_ctrls.wrQLenPdf::38                      0                       # What write queue length does an incoming req see
system.mem_ctrls.wrQLenPdf::39                      0                       # What write queue length does an incoming req see
system.mem_ctrls.wrQLenPdf::40                      0                       # What write queue length does an incoming req see
system.mem_ctrls.wrQLenPdf::41                      0                       # What write queue length does an incoming req see
system.mem_ctrls.wrQLenPdf::42                      0                       # What write queue length does an incoming req see
system.mem_ctrls.wrQLenPdf::43                      0                       # What write queue length does an incoming req see
system.mem_ctrls.wrQLenPdf::44                      0                       # What write queue length does an incoming req see
system.mem_ctrls.wrQLenPdf::45                      0                       # What write queue length does an incoming req see
system.mem_ctrls.wrQLenPdf::46                      0                       # What write queue length does an incoming req see
system.mem_ctrls.wrQLenPdf::47                      0                       # What write queue length does an incoming req see
system.mem_ctrls.wrQLenPdf::48                      0                       # What write queue length does an incoming req see
system.mem_ctrls.wrQLenPdf::49                      0                       # What write queue length does an incoming req see
system.mem_ctrls.wrQLenPdf::50                      0                       # What write queue length does an incoming req see
system.mem_ctrls.wrQLenPdf::51                      0                       # What write queue length does an incoming req see
system.mem_ctrls.wrQLenPdf::52                      0                       # What write queue length does an incoming req see
system.mem_ctrls.wrQLenPdf::53                      0                       # What write queue length does an incoming req see
system.mem_ctrls.wrQLenPdf::54                      0                       # What write queue length does an incoming req see
system.mem_ctrls.wrQLenPdf::55                      0                       # What write queue length does an incoming req see
system.mem_ctrls.wrQLenPdf::56                      0                       # What write queue length does an incoming req see
system.mem_ctrls.wrQLenPdf::57                      0                       # What write queue length does an incoming req see
system.mem_ctrls.wrQLenPdf::58                      0                       # What write queue length does an incoming req see
system.mem_ctrls.wrQLenPdf::59                      0                       # What write queue length does an incoming req see
system.mem_ctrls.wrQLenPdf::60                      0                       # What write queue length does an incoming req see
system.mem_ctrls.wrQLenPdf::61                      0                       # What write queue length does an incoming req see
system.mem_ctrls.wrQLenPdf::62                      0                       # What write queue length does an incoming req see
system.mem_ctrls.wrQLenPdf::63                      0                       # What write queue length does an incoming req see
system.mem_ctrls.bytesPerActivate::samples      1940361                       # Bytes accessed per row activation
system.mem_ctrls.bytesPerActivate::mean    140.162190                       # Bytes accessed per row activation
system.mem_ctrls.bytesPerActivate::gmean    91.383288                       # Bytes accessed per row activation
system.mem_ctrls.bytesPerActivate::stdev   201.476754                       # Bytes accessed per row activation
system.mem_ctrls.bytesPerActivate::0-127      1475656     76.05%     76.05% # Bytes accessed per row activation
system.mem_ctrls.bytesPerActivate::128-255       224895     11.59%     87.64% # Bytes accessed per row activation
system.mem_ctrls.bytesPerActivate::256-383        60073      3.10%     90.74% # Bytes accessed per row activation
system.mem_ctrls.bytesPerActivate::384-511        39462      2.03%     92.77% # Bytes accessed per row activation
system.mem_ctrls.bytesPerActivate::512-639        35170      1.81%     94.58% # Bytes accessed per row activation
system.mem_ctrls.bytesPerActivate::640-767        24609      1.27%     95.85% # Bytes accessed per row activation
system.mem_ctrls.bytesPerActivate::768-895        20222      1.04%     96.89% # Bytes accessed per row activation
system.mem_ctrls.bytesPerActivate::896-1023        16582      0.85%     97.75% # Bytes accessed per row activation
system.mem_ctrls.bytesPerActivate::1024-1151        43692      2.25%    100.00% # Bytes accessed per row activation
system.mem_ctrls.bytesPerActivate::total      1940361                       # Bytes accessed per row activation
system.mem_ctrls.rdPerTurnAround::samples        98371                       # Reads before turning the bus around for writes
system.mem_ctrls.rdPerTurnAround::mean      27.174208                       # Reads before turning the bus around for writes
system.mem_ctrls.rdPerTurnAround::gmean     24.594154                       # Reads before turning the bus around for writes
system.mem_ctrls.rdPerTurnAround::stdev     17.698650                       # Reads before turning the bus around for writes
system.mem_ctrls.rdPerTurnAround::0-31          71175     72.35%     72.35% # Reads before turning the bus around for writes
system.mem_ctrls.rdPerTurnAround::32-63         24817     25.23%     97.58% # Reads before turning the bus around for writes
system.mem_ctrls.rdPerTurnAround::64-95          1271      1.29%     98.87% # Reads before turning the bus around for writes
system.mem_ctrls.rdPerTurnAround::96-127          421      0.43%     99.30% # Reads before turning the bus around for writes
system.mem_ctrls.rdPerTurnAround::128-159          329      0.33%     99.64% # Reads before turning the bus around for writes
system.mem_ctrls.rdPerTurnAround::160-191          228      0.23%     99.87% # Reads before turning the bus around for writes
system.mem_ctrls.rdPerTurnAround::192-223           57      0.06%     99.93% # Reads before turning the bus around for writes
system.mem_ctrls.rdPerTurnAround::224-255           14      0.01%     99.94% # Reads before turning the bus around for writes
system.mem_ctrls.rdPerTurnAround::256-287           39      0.04%     99.98% # Reads before turning the bus around for writes
system.mem_ctrls.rdPerTurnAround::288-319            6      0.01%     99.99% # Reads before turning the bus around for writes
system.mem_ctrls.rdPerTurnAround::320-351            2      0.00%     99.99% # Reads before turning the bus around for writes
system.mem_ctrls.rdPerTurnAround::352-383            3      0.00%     99.99% # Reads before turning the bus around for writes
system.mem_ctrls.rdPerTurnAround::384-415            1      0.00%     99.99% # Reads before turning the bus around for writes
system.mem_ctrls.rdPerTurnAround::416-447            2      0.00%     99.99% # Reads before turning the bus around for writes
system.mem_ctrls.rdPerTurnAround::448-479            4      0.00%    100.00% # Reads before turning the bus around for writes
system.mem_ctrls.rdPerTurnAround::480-511            1      0.00%    100.00% # Reads before turning the bus around for writes
system.mem_ctrls.rdPerTurnAround::736-767            1      0.00%    100.00% # Reads before turning the bus around for writes
system.mem_ctrls.rdPerTurnAround::total         98371                       # Reads before turning the bus around for writes
system.mem_ctrls.wrPerTurnAround::samples        98371                       # Writes before turning the bus around for reads
system.mem_ctrls.wrPerTurnAround::mean      16.024296                       # Writes before turning the bus around for reads
system.mem_ctrls.wrPerTurnAround::gmean     16.022914                       # Writes before turning the bus around for reads
system.mem_ctrls.wrPerTurnAround::stdev      0.218768                       # Writes before turning the bus around for reads
system.mem_ctrls.wrPerTurnAround::16            97152     98.76%     98.76% # Writes before turning the bus around for reads
system.mem_ctrls.wrPerTurnAround::17               65      0.07%     98.83% # Writes before turning the bus around for reads
system.mem_ctrls.wrPerTurnAround::18             1137      1.16%     99.98% # Writes before turning the bus around for reads
system.mem_ctrls.wrPerTurnAround::19               17      0.02%    100.00% # Writes before turning the bus around for reads
system.mem_ctrls.wrPerTurnAround::total         98371                       # Writes before turning the bus around for reads
system.mem_ctrls.totQLat                  58454821748                       # Total ticks spent queuing
system.mem_ctrls.totMemAccLat            108576009248                       # Total ticks spent from burst creation until serviced by the DRAM
system.mem_ctrls.totBusLat                13365650000                       # Total ticks spent in databus transfers
system.mem_ctrls.avgQLat                     21867.56                       # Average queueing delay per DRAM burst
system.mem_ctrls.avgBusLat                    5000.00                       # Average bus latency per DRAM burst
system.mem_ctrls.avgMemAccLat                40617.56                       # Average memory access latency per DRAM burst
system.mem_ctrls.avgRdBW                       142.29                       # Average DRAM read bandwidth in MiByte/s
system.mem_ctrls.avgWrBW                        83.91                       # Average achieved write bandwidth in MiByte/s
system.mem_ctrls.avgRdBWSys                    142.31                       # Average system read bandwidth in MiByte/s
system.mem_ctrls.avgWrBWSys                     83.91                       # Average system write bandwidth in MiByte/s
system.mem_ctrls.peakBW                      12800.00                       # Theoretical peak bandwidth in MiByte/s
system.mem_ctrls.busUtil                         1.77                       # Data bus utilization in percentage
system.mem_ctrls.busUtilRead                     1.11                       # Data bus utilization in percentage for reads
system.mem_ctrls.busUtilWrite                    0.66                       # Data bus utilization in percentage for writes
system.mem_ctrls.avgRdQLen                       1.00                       # Average read queue length when enqueuing
system.mem_ctrls.avgWrQLen                      25.61                       # Average write queue length when enqueuing
system.mem_ctrls.readRowHits                  1493465                       # Number of row buffer hits during reads
system.mem_ctrls.writeRowHits                  815629                       # Number of row buffer hits during writes
system.mem_ctrls.readRowHitRate                 55.87                       # Row buffer hit rate for reads
system.mem_ctrls.writeRowHitRate                51.74                       # Row buffer hit rate for writes
system.mem_ctrls.avgGap                     282907.77                       # Average gap between requests
system.mem_ctrls.pageHitRate                    54.34                       # Row buffer hit rate, read and write combined
system.mem_ctrls_0.actEnergy               7413978600                       # Energy for activate commands per rank (pJ)
system.mem_ctrls_0.preEnergy               4045325625                       # Energy for precharge commands per rank (pJ)
system.mem_ctrls_0.readEnergy             10561028400                       # Energy for read commands per rank (pJ)
system.mem_ctrls_0.writeEnergy             5130378000                       # Energy for write commands per rank (pJ)
system.mem_ctrls_0.refreshEnergy          78967671120                       # Energy for refresh commands per rank (pJ)
system.mem_ctrls_0.actBackEnergy         260202766455                       # Energy for active background per rank (pJ)
system.mem_ctrls_0.preBackEnergy         497167440000                       # Energy for precharge background per rank (pJ)
system.mem_ctrls_0.totalEnergy           863488588200                       # Total energy per rank (pJ)
system.mem_ctrls_0.averagePower            714.201953                       # Core power per rank (mW)
system.mem_ctrls_0.memoryStateTime::IDLE 819577142999                       # Time in different power states
system.mem_ctrls_0.memoryStateTime::REF   40148680000                       # Time in different power states
system.mem_ctrls_0.memoryStateTime::PRE_PDN            0                       # Time in different power states
system.mem_ctrls_0.memoryStateTime::ACT  342611053501                       # Time in different power states
system.mem_ctrls_0.memoryStateTime::ACT_PDN            0                       # Time in different power states
system.mem_ctrls_1.actEnergy               7294923720                       # Energy for activate commands per rank (pJ)
system.mem_ctrls_1.preEnergy               3980365125                       # Energy for precharge commands per rank (pJ)
system.mem_ctrls_1.readEnergy             10487380800                       # Energy for read commands per rank (pJ)
system.mem_ctrls_1.writeEnergy             5086858320                       # Energy for write commands per rank (pJ)
system.mem_ctrls_1.refreshEnergy          78967671120                       # Energy for refresh commands per rank (pJ)
system.mem_ctrls_1.actBackEnergy         257854950990                       # Energy for active background per rank (pJ)
system.mem_ctrls_1.preBackEnergy         499226927250                       # Energy for precharge background per rank (pJ)
system.mem_ctrls_1.totalEnergy           862899077325                       # Total energy per rank (pJ)
system.mem_ctrls_1.averagePower            713.714361                       # Core power per rank (mW)
system.mem_ctrls_1.memoryStateTime::IDLE 823153594999                       # Time in different power states
system.mem_ctrls_1.memoryStateTime::REF   40148680000                       # Time in different power states
system.mem_ctrls_1.memoryStateTime::PRE_PDN            0                       # Time in different power states
system.mem_ctrls_1.memoryStateTime::ACT  339034877501                       # Time in different power states
system.mem_ctrls_1.memoryStateTime::ACT_PDN            0                       # Time in different power states
system.cpu_voltage_domain.voltage                   1                       # Voltage in Volts
system.cpu_clk_domain.clock                       500                       # Clock period in ticks
system.cpu0.apic_clk_domain.clock                8000                       # Clock period in ticks
system.cpu0.numCycles                      2402639938                       # number of cpu cycles simulated
system.cpu0.numWorkItemsStarted                     0                       # number of work items this cpu started
system.cpu0.numWorkItemsCompleted                   0                       # number of work items this cpu completed
system.cpu0.kern.inst.arm                           0                       # number of arm instructions executed
system.cpu0.kern.inst.quiesce                       0                       # number of quiesce instructions executed
system.cpu0.committedInsts                    3030497                       # Number of instructions committed
system.cpu0.committedOps                      6054149                       # Number of ops (including micro ops) committed
system.cpu0.num_int_alu_accesses              5948731                       # Number of integer alu accesses
system.cpu0.num_fp_alu_accesses                  1826                       # Number of float alu accesses
system.cpu0.num_func_calls                     159376                       # number of times a function call or return occured
system.cpu0.num_conditional_control_insts       501317                       # number of instructions that are conditional controls
system.cpu0.num_int_insts                     5948731                       # number of integer instructions
system.cpu0.num_fp_insts                         1826                       # number of float instructions
system.cpu0.num_int_register_reads           11853377                       # number of times the integer registers were read
system.cpu0.num_int_register_writes           4833559                       # number of times the integer registers were written
system.cpu0.num_fp_register_reads                3068                       # number of times the floating registers were read
system.cpu0.num_fp_register_writes               1448                       # number of times the floating registers were written
system.cpu0.num_cc_register_reads             3780037                       # number of times the CC registers were read
system.cpu0.num_cc_register_writes            2070763                       # number of times the CC registers were written
system.cpu0.num_mem_refs                      1366049                       # number of memory refs
system.cpu0.num_load_insts                     880697                       # Number of load instructions
system.cpu0.num_store_insts                    485352                       # Number of store instructions
system.cpu0.num_idle_cycles              2388067008.708874                       # Number of idle cycles
system.cpu0.num_busy_cycles              14572929.291126                       # Number of busy cycles
system.cpu0.not_idle_fraction                0.006065                       # Percentage of non-idle cycles
system.cpu0.idle_fraction                    0.993935                       # Percentage of idle cycles
system.cpu0.Branches                           689826                       # Number of branches fetched
system.cpu0.op_class::No_OpClass                39935      0.66%      0.66% # Class of executed instruction
system.cpu0.op_class::IntAlu                  4629975     76.47%     77.13% # Class of executed instruction
system.cpu0.op_class::IntMult                    4927      0.08%     77.22% # Class of executed instruction
system.cpu0.op_class::IntDiv                    11979      0.20%     77.41% # Class of executed instruction
system.cpu0.op_class::FloatAdd                   1376      0.02%     77.44% # Class of executed instruction
system.cpu0.op_class::FloatCmp                      0      0.00%     77.44% # Class of executed instruction
system.cpu0.op_class::FloatCvt                      0      0.00%     77.44% # Class of executed instruction
system.cpu0.op_class::FloatMult                     0      0.00%     77.44% # Class of executed instruction
system.cpu0.op_class::FloatDiv                      0      0.00%     77.44% # Class of executed instruction
system.cpu0.op_class::FloatSqrt                     0      0.00%     77.44% # Class of executed instruction
system.cpu0.op_class::SimdAdd                       0      0.00%     77.44% # Class of executed instruction
system.cpu0.op_class::SimdAddAcc                    0      0.00%     77.44% # Class of executed instruction
system.cpu0.op_class::SimdAlu                       0      0.00%     77.44% # Class of executed instruction
system.cpu0.op_class::SimdCmp                       0      0.00%     77.44% # Class of executed instruction
system.cpu0.op_class::SimdCvt                       0      0.00%     77.44% # Class of executed instruction
system.cpu0.op_class::SimdMisc                      0      0.00%     77.44% # Class of executed instruction
system.cpu0.op_class::SimdMult                      0      0.00%     77.44% # Class of executed instruction
system.cpu0.op_class::SimdMultAcc                   0      0.00%     77.44% # Class of executed instruction
system.cpu0.op_class::SimdShift                     0      0.00%     77.44% # Class of executed instruction
system.cpu0.op_class::SimdShiftAcc                  0      0.00%     77.44% # Class of executed instruction
system.cpu0.op_class::SimdSqrt                      0      0.00%     77.44% # Class of executed instruction
system.cpu0.op_class::SimdFloatAdd                  0      0.00%     77.44% # Class of executed instruction
system.cpu0.op_class::SimdFloatAlu                  0      0.00%     77.44% # Class of executed instruction
system.cpu0.op_class::SimdFloatCmp                  0      0.00%     77.44% # Class of executed instruction
system.cpu0.op_class::SimdFloatCvt                  0      0.00%     77.44% # Class of executed instruction
system.cpu0.op_class::SimdFloatDiv                  0      0.00%     77.44% # Class of executed instruction
system.cpu0.op_class::SimdFloatMisc                 0      0.00%     77.44% # Class of executed instruction
system.cpu0.op_class::SimdFloatMult                 0      0.00%     77.44% # Class of executed instruction
system.cpu0.op_class::SimdFloatMultAcc              0      0.00%     77.44% # Class of executed instruction
system.cpu0.op_class::SimdFloatSqrt                 0      0.00%     77.44% # Class of executed instruction
system.cpu0.op_class::MemRead                  880697     14.55%     91.98% # Class of executed instruction
system.cpu0.op_class::MemWrite                 485352      8.02%    100.00% # Class of executed instruction
system.cpu0.op_class::IprAccess                     0      0.00%    100.00% # Class of executed instruction
system.cpu0.op_class::InstPrefetch                  0      0.00%    100.00% # Class of executed instruction
system.cpu0.op_class::total                   6054241                       # Class of executed instruction
system.cpu1.apic_clk_domain.clock                8000                       # Clock period in ticks
system.cpu1.numCycles                      2408006717                       # number of cpu cycles simulated
system.cpu1.numWorkItemsStarted                     0                       # number of work items this cpu started
system.cpu1.numWorkItemsCompleted                   0                       # number of work items this cpu completed
system.cpu1.kern.inst.arm                           0                       # number of arm instructions executed
system.cpu1.kern.inst.quiesce                       0                       # number of quiesce instructions executed
system.cpu1.committedInsts                     882416                       # Number of instructions committed
system.cpu1.committedOps                      1897241                       # Number of ops (including micro ops) committed
system.cpu1.num_int_alu_accesses              1856961                       # Number of integer alu accesses
system.cpu1.num_fp_alu_accesses                    39                       # Number of float alu accesses
system.cpu1.num_func_calls                      55170                       # number of times a function call or return occured
system.cpu1.num_conditional_control_insts       126908                       # number of instructions that are conditional controls
system.cpu1.num_int_insts                     1856961                       # number of integer instructions
system.cpu1.num_fp_insts                           39                       # number of float instructions
system.cpu1.num_int_register_reads            3783290                       # number of times the integer registers were read
system.cpu1.num_int_register_writes           1533055                       # number of times the integer registers were written
system.cpu1.num_fp_register_reads                  63                       # number of times the floating registers were read
system.cpu1.num_fp_register_writes                 31                       # number of times the floating registers were written
system.cpu1.num_cc_register_reads             1007141                       # number of times the CC registers were read
system.cpu1.num_cc_register_writes             550561                       # number of times the CC registers were written
system.cpu1.num_mem_refs                       458569                       # number of memory refs
system.cpu1.num_load_insts                     285193                       # Number of load instructions
system.cpu1.num_store_insts                    173376                       # Number of store instructions
system.cpu1.num_idle_cycles              2402228420.866544                       # Number of idle cycles
system.cpu1.num_busy_cycles              5778296.133456                       # Number of busy cycles
system.cpu1.not_idle_fraction                0.002400                       # Percentage of non-idle cycles
system.cpu1.idle_fraction                    0.997600                       # Percentage of idle cycles
system.cpu1.Branches                           199752                       # Number of branches fetched
system.cpu1.op_class::No_OpClass                30662      1.62%      1.62% # Class of executed instruction
system.cpu1.op_class::IntAlu                  1394022     73.48%     75.09% # Class of executed instruction
system.cpu1.op_class::IntMult                    3622      0.19%     75.28% # Class of executed instruction
system.cpu1.op_class::IntDiv                    10359      0.55%     75.83% # Class of executed instruction
system.cpu1.op_class::FloatAdd                     30      0.00%     75.83% # Class of executed instruction
system.cpu1.op_class::FloatCmp                      0      0.00%     75.83% # Class of executed instruction
system.cpu1.op_class::FloatCvt                      0      0.00%     75.83% # Class of executed instruction
system.cpu1.op_class::FloatMult                     0      0.00%     75.83% # Class of executed instruction
system.cpu1.op_class::FloatDiv                      0      0.00%     75.83% # Class of executed instruction
system.cpu1.op_class::FloatSqrt                     0      0.00%     75.83% # Class of executed instruction
system.cpu1.op_class::SimdAdd                       0      0.00%     75.83% # Class of executed instruction
system.cpu1.op_class::SimdAddAcc                    0      0.00%     75.83% # Class of executed instruction
system.cpu1.op_class::SimdAlu                       0      0.00%     75.83% # Class of executed instruction
system.cpu1.op_class::SimdCmp                       0      0.00%     75.83% # Class of executed instruction
system.cpu1.op_class::SimdCvt                       0      0.00%     75.83% # Class of executed instruction
system.cpu1.op_class::SimdMisc                      0      0.00%     75.83% # Class of executed instruction
system.cpu1.op_class::SimdMult                      0      0.00%     75.83% # Class of executed instruction
system.cpu1.op_class::SimdMultAcc                   0      0.00%     75.83% # Class of executed instruction
system.cpu1.op_class::SimdShift                     0      0.00%     75.83% # Class of executed instruction
system.cpu1.op_class::SimdShiftAcc                  0      0.00%     75.83% # Class of executed instruction
system.cpu1.op_class::SimdSqrt                      0      0.00%     75.83% # Class of executed instruction
system.cpu1.op_class::SimdFloatAdd                  0      0.00%     75.83% # Class of executed instruction
system.cpu1.op_class::SimdFloatAlu                  0      0.00%     75.83% # Class of executed instruction
system.cpu1.op_class::SimdFloatCmp                  0      0.00%     75.83% # Class of executed instruction
system.cpu1.op_class::SimdFloatCvt                  0      0.00%     75.83% # Class of executed instruction
system.cpu1.op_class::SimdFloatDiv                  0      0.00%     75.83% # Class of executed instruction
system.cpu1.op_class::SimdFloatMisc                 0      0.00%     75.83% # Class of executed instruction
system.cpu1.op_class::SimdFloatMult                 0      0.00%     75.83% # Class of executed instruction
system.cpu1.op_class::SimdFloatMultAcc              0      0.00%     75.83% # Class of executed instruction
system.cpu1.op_class::SimdFloatSqrt                 0      0.00%     75.83% # Class of executed instruction
system.cpu1.op_class::MemRead                  285193     15.03%     90.86% # Class of executed instruction
system.cpu1.op_class::MemWrite                 173376      9.14%    100.00% # Class of executed instruction
system.cpu1.op_class::IprAccess                     0      0.00%    100.00% # Class of executed instruction
system.cpu1.op_class::InstPrefetch                  0      0.00%    100.00% # Class of executed instruction
system.cpu1.op_class::total                   1897264                       # Class of executed instruction
system.cpu2.apic_clk_domain.clock                8000                       # Clock period in ticks
system.cpu2.numCycles                      2406615830                       # number of cpu cycles simulated
system.cpu2.numWorkItemsStarted                     0                       # number of work items this cpu started
system.cpu2.numWorkItemsCompleted                   0                       # number of work items this cpu completed
system.cpu2.kern.inst.arm                           0                       # number of arm instructions executed
system.cpu2.kern.inst.quiesce                       0                       # number of quiesce instructions executed
system.cpu2.committedInsts                  533866845                       # Number of instructions committed
system.cpu2.committedOps                    709204246                       # Number of ops (including micro ops) committed
system.cpu2.num_int_alu_accesses            508826728                       # Number of integer alu accesses
system.cpu2.num_fp_alu_accesses             331101068                       # Number of float alu accesses
system.cpu2.num_func_calls                     433585                       # number of times a function call or return occured
system.cpu2.num_conditional_control_insts     31468205                       # number of instructions that are conditional controls
system.cpu2.num_int_insts                   508826728                       # number of integer instructions
system.cpu2.num_fp_insts                    331101068                       # number of float instructions
system.cpu2.num_int_register_reads         1070165473                       # number of times the integer registers were read
system.cpu2.num_int_register_writes         339861742                       # number of times the integer registers were written
system.cpu2.num_fp_register_reads           564014582                       # number of times the floating registers were read
system.cpu2.num_fp_register_writes          276695748                       # number of times the floating registers were written
system.cpu2.num_cc_register_reads           220297831                       # number of times the CC registers were read
system.cpu2.num_cc_register_writes          241365436                       # number of times the CC registers were written
system.cpu2.num_mem_refs                    152845730                       # number of memory refs
system.cpu2.num_load_insts                   94765873                       # Number of load instructions
system.cpu2.num_store_insts                  58079857                       # Number of store instructions
system.cpu2.num_idle_cycles              9715462.572382                       # Number of idle cycles
system.cpu2.num_busy_cycles              2396900367.427618                       # Number of busy cycles
system.cpu2.not_idle_fraction                0.995963                       # Percentage of non-idle cycles
system.cpu2.idle_fraction                    0.004037                       # Percentage of idle cycles
system.cpu2.Branches                         33881276                       # Number of branches fetched
system.cpu2.op_class::No_OpClass               955385      0.13%      0.13% # Class of executed instruction
system.cpu2.op_class::IntAlu                444091654     62.62%     62.75% # Class of executed instruction
system.cpu2.op_class::IntMult                   24583      0.00%     62.76% # Class of executed instruction
system.cpu2.op_class::IntDiv                   145465      0.02%     62.78% # Class of executed instruction
system.cpu2.op_class::FloatAdd              111149730     15.67%     78.45% # Class of executed instruction
system.cpu2.op_class::FloatCmp                      0      0.00%     78.45% # Class of executed instruction
system.cpu2.op_class::FloatCvt                      0      0.00%     78.45% # Class of executed instruction
system.cpu2.op_class::FloatMult                     0      0.00%     78.45% # Class of executed instruction
system.cpu2.op_class::FloatDiv                      0      0.00%     78.45% # Class of executed instruction
system.cpu2.op_class::FloatSqrt                     0      0.00%     78.45% # Class of executed instruction
system.cpu2.op_class::SimdAdd                       0      0.00%     78.45% # Class of executed instruction
system.cpu2.op_class::SimdAddAcc                    0      0.00%     78.45% # Class of executed instruction
system.cpu2.op_class::SimdAlu                       0      0.00%     78.45% # Class of executed instruction
system.cpu2.op_class::SimdCmp                       0      0.00%     78.45% # Class of executed instruction
system.cpu2.op_class::SimdCvt                       0      0.00%     78.45% # Class of executed instruction
system.cpu2.op_class::SimdMisc                      0      0.00%     78.45% # Class of executed instruction
system.cpu2.op_class::SimdMult                      0      0.00%     78.45% # Class of executed instruction
system.cpu2.op_class::SimdMultAcc                   0      0.00%     78.45% # Class of executed instruction
system.cpu2.op_class::SimdShift                     0      0.00%     78.45% # Class of executed instruction
system.cpu2.op_class::SimdShiftAcc                  0      0.00%     78.45% # Class of executed instruction
system.cpu2.op_class::SimdSqrt                      0      0.00%     78.45% # Class of executed instruction
system.cpu2.op_class::SimdFloatAdd                  0      0.00%     78.45% # Class of executed instruction
system.cpu2.op_class::SimdFloatAlu                  0      0.00%     78.45% # Class of executed instruction
system.cpu2.op_class::SimdFloatCmp                  0      0.00%     78.45% # Class of executed instruction
system.cpu2.op_class::SimdFloatCvt                  0      0.00%     78.45% # Class of executed instruction
system.cpu2.op_class::SimdFloatDiv                  0      0.00%     78.45% # Class of executed instruction
system.cpu2.op_class::SimdFloatMisc                 0      0.00%     78.45% # Class of executed instruction
system.cpu2.op_class::SimdFloatMult                 0      0.00%     78.45% # Class of executed instruction
system.cpu2.op_class::SimdFloatMultAcc              0      0.00%     78.45% # Class of executed instruction
system.cpu2.op_class::SimdFloatSqrt                 0      0.00%     78.45% # Class of executed instruction
system.cpu2.op_class::MemRead                94765873     13.36%     91.81% # Class of executed instruction
system.cpu2.op_class::MemWrite               58079857      8.19%    100.00% # Class of executed instruction
system.cpu2.op_class::IprAccess                     0      0.00%    100.00% # Class of executed instruction
system.cpu2.op_class::InstPrefetch                  0      0.00%    100.00% # Class of executed instruction
system.cpu2.op_class::total                 709212547                       # Class of executed instruction
system.cpu3.apic_clk_domain.clock                8000                       # Clock period in ticks
system.cpu3.numCycles                      2399076920                       # number of cpu cycles simulated
system.cpu3.numWorkItemsStarted                     0                       # number of work items this cpu started
system.cpu3.numWorkItemsCompleted                   0                       # number of work items this cpu completed
system.cpu3.kern.inst.arm                           0                       # number of arm instructions executed
system.cpu3.kern.inst.quiesce                       0                       # number of quiesce instructions executed
system.cpu3.committedInsts                     918830                       # Number of instructions committed
system.cpu3.committedOps                      1972889                       # Number of ops (including micro ops) committed
system.cpu3.num_int_alu_accesses              1926008                       # Number of integer alu accesses
system.cpu3.num_fp_alu_accesses                     0                       # Number of float alu accesses
system.cpu3.num_func_calls                      53538                       # number of times a function call or return occured
system.cpu3.num_conditional_control_insts       142024                       # number of instructions that are conditional controls
system.cpu3.num_int_insts                     1926008                       # number of integer instructions
system.cpu3.num_fp_insts                            0                       # number of float instructions
system.cpu3.num_int_register_reads            3912850                       # number of times the integer registers were read
system.cpu3.num_int_register_writes           1597881                       # number of times the integer registers were written
system.cpu3.num_fp_register_reads                   0                       # number of times the floating registers were read
system.cpu3.num_fp_register_writes                  0                       # number of times the floating registers were written
system.cpu3.num_cc_register_reads             1113102                       # number of times the CC registers were read
system.cpu3.num_cc_register_writes             581424                       # number of times the CC registers were written
system.cpu3.num_mem_refs                       466986                       # number of memory refs
system.cpu3.num_load_insts                     292379                       # Number of load instructions
system.cpu3.num_store_insts                    174607                       # Number of store instructions
system.cpu3.num_idle_cycles              2393459118.472516                       # Number of idle cycles
system.cpu3.num_busy_cycles              5617801.527485                       # Number of busy cycles
system.cpu3.not_idle_fraction                0.002342                       # Percentage of non-idle cycles
system.cpu3.idle_fraction                    0.997658                       # Percentage of idle cycles
system.cpu3.Branches                           213035                       # Number of branches fetched
system.cpu3.op_class::No_OpClass                35896      1.82%      1.82% # Class of executed instruction
system.cpu3.op_class::IntAlu                  1452524     73.62%     75.44% # Class of executed instruction
system.cpu3.op_class::IntMult                    4571      0.23%     75.68% # Class of executed instruction
system.cpu3.op_class::IntDiv                    12915      0.65%     76.33% # Class of executed instruction
system.cpu3.op_class::FloatAdd                      0      0.00%     76.33% # Class of executed instruction
system.cpu3.op_class::FloatCmp                      0      0.00%     76.33% # Class of executed instruction
system.cpu3.op_class::FloatCvt                      0      0.00%     76.33% # Class of executed instruction
system.cpu3.op_class::FloatMult                     0      0.00%     76.33% # Class of executed instruction
system.cpu3.op_class::FloatDiv                      0      0.00%     76.33% # Class of executed instruction
system.cpu3.op_class::FloatSqrt                     0      0.00%     76.33% # Class of executed instruction
system.cpu3.op_class::SimdAdd                       0      0.00%     76.33% # Class of executed instruction
system.cpu3.op_class::SimdAddAcc                    0      0.00%     76.33% # Class of executed instruction
system.cpu3.op_class::SimdAlu                       0      0.00%     76.33% # Class of executed instruction
system.cpu3.op_class::SimdCmp                       0      0.00%     76.33% # Class of executed instruction
system.cpu3.op_class::SimdCvt                       0      0.00%     76.33% # Class of executed instruction
system.cpu3.op_class::SimdMisc                      0      0.00%     76.33% # Class of executed instruction
system.cpu3.op_class::SimdMult                      0      0.00%     76.33% # Class of executed instruction
system.cpu3.op_class::SimdMultAcc                   0      0.00%     76.33% # Class of executed instruction
system.cpu3.op_class::SimdShift                     0      0.00%     76.33% # Class of executed instruction
system.cpu3.op_class::SimdShiftAcc                  0      0.00%     76.33% # Class of executed instruction
system.cpu3.op_class::SimdSqrt                      0      0.00%     76.33% # Class of executed instruction
system.cpu3.op_class::SimdFloatAdd                  0      0.00%     76.33% # Class of executed instruction
system.cpu3.op_class::SimdFloatAlu                  0      0.00%     76.33% # Class of executed instruction
system.cpu3.op_class::SimdFloatCmp                  0      0.00%     76.33% # Class of executed instruction
system.cpu3.op_class::SimdFloatCvt                  0      0.00%     76.33% # Class of executed instruction
system.cpu3.op_class::SimdFloatDiv                  0      0.00%     76.33% # Class of executed instruction
system.cpu3.op_class::SimdFloatMisc                 0      0.00%     76.33% # Class of executed instruction
system.cpu3.op_class::SimdFloatMult                 0      0.00%     76.33% # Class of executed instruction
system.cpu3.op_class::SimdFloatMultAcc              0      0.00%     76.33% # Class of executed instruction
system.cpu3.op_class::SimdFloatSqrt                 0      0.00%     76.33% # Class of executed instruction
system.cpu3.op_class::MemRead                  292379     14.82%     91.15% # Class of executed instruction
system.cpu3.op_class::MemWrite                 174607      8.85%    100.00% # Class of executed instruction
system.cpu3.op_class::IprAccess                     0      0.00%    100.00% # Class of executed instruction
system.cpu3.op_class::InstPrefetch                  0      0.00%    100.00% # Class of executed instruction
system.cpu3.op_class::total                   1972892                       # Class of executed instruction
system.iobus.trans_dist::ReadReq                  708                       # Transaction distribution
system.iobus.trans_dist::ReadResp                 708                       # Transaction distribution
system.iobus.trans_dist::WriteReq                1468                       # Transaction distribution
system.iobus.trans_dist::WriteResp               1468                       # Transaction distribution
system.iobus.trans_dist::MessageReq                11                       # Transaction distribution
system.iobus.trans_dist::MessageResp               11                       # Transaction distribution
system.iobus.pkt_count_system.pc.south_bridge.io_apic.int_master::system.ruby.l1_cntrl1.sequencer.pio-slave-port            2                       # Packet count per connected master and slave (bytes)
system.iobus.pkt_count_system.pc.south_bridge.io_apic.int_master::system.ruby.l1_cntrl2.sequencer.pio-slave-port            2                       # Packet count per connected master and slave (bytes)
system.iobus.pkt_count_system.pc.south_bridge.io_apic.int_master::system.ruby.l1_cntrl3.sequencer.pio-slave-port            2                       # Packet count per connected master and slave (bytes)
system.iobus.pkt_count_system.pc.south_bridge.io_apic.int_master::total            6                       # Packet count per connected master and slave (bytes)
system.iobus.pkt_count_system.ruby.l1_cntrl0.sequencer.mem-master-port::system.ruby.l1_cntrl0.sequencer.pio-slave-port          620                       # Packet count per connected master and slave (bytes)
system.iobus.pkt_count_system.ruby.l1_cntrl0.sequencer.mem-master-port::system.ruby.l1_cntrl1.sequencer.pio-slave-port            2                       # Packet count per connected master and slave (bytes)
system.iobus.pkt_count_system.ruby.l1_cntrl0.sequencer.mem-master-port::system.ruby.l1_cntrl2.sequencer.pio-slave-port            2                       # Packet count per connected master and slave (bytes)
system.iobus.pkt_count_system.ruby.l1_cntrl0.sequencer.mem-master-port::system.ruby.l1_cntrl3.sequencer.pio-slave-port            2                       # Packet count per connected master and slave (bytes)
system.iobus.pkt_count_system.ruby.l1_cntrl0.sequencer.mem-master-port::total          626                       # Packet count per connected master and slave (bytes)
system.iobus.pkt_count_system.ruby.l1_cntrl1.sequencer.mem-master-port::system.pc.south_bridge.io_apic.pio            6                       # Packet count per connected master and slave (bytes)
system.iobus.pkt_count_system.ruby.l1_cntrl1.sequencer.mem-master-port::system.pc.com_1.pio         1854                       # Packet count per connected master and slave (bytes)
system.iobus.pkt_count_system.ruby.l1_cntrl1.sequencer.mem-master-port::system.ruby.l1_cntrl1.sequencer.pio-slave-port          614                       # Packet count per connected master and slave (bytes)
system.iobus.pkt_count_system.ruby.l1_cntrl1.sequencer.mem-master-port::system.ruby.l1_cntrl2.sequencer.pio-slave-port            2                       # Packet count per connected master and slave (bytes)
system.iobus.pkt_count_system.ruby.l1_cntrl1.sequencer.mem-master-port::total         2476                       # Packet count per connected master and slave (bytes)
system.iobus.pkt_count_system.ruby.l1_cntrl2.sequencer.mem-master-port::system.pc.south_bridge.io_apic.pio            8                       # Packet count per connected master and slave (bytes)
system.iobus.pkt_count_system.ruby.l1_cntrl2.sequencer.mem-master-port::system.ruby.l1_cntrl1.sequencer.pio-slave-port            2                       # Packet count per connected master and slave (bytes)
system.iobus.pkt_count_system.ruby.l1_cntrl2.sequencer.mem-master-port::system.ruby.l1_cntrl2.sequencer.pio-slave-port          626                       # Packet count per connected master and slave (bytes)
system.iobus.pkt_count_system.ruby.l1_cntrl2.sequencer.mem-master-port::system.ruby.l1_cntrl3.sequencer.pio-slave-port            4                       # Packet count per connected master and slave (bytes)
system.iobus.pkt_count_system.ruby.l1_cntrl2.sequencer.mem-master-port::total          640                       # Packet count per connected master and slave (bytes)
system.iobus.pkt_count_system.ruby.l1_cntrl3.sequencer.mem-master-port::system.pc.south_bridge.io_apic.pio            8                       # Packet count per connected master and slave (bytes)
system.iobus.pkt_count_system.ruby.l1_cntrl3.sequencer.mem-master-port::system.pc.com_1.pio            2                       # Packet count per connected master and slave (bytes)
system.iobus.pkt_count_system.ruby.l1_cntrl3.sequencer.mem-master-port::system.ruby.l1_cntrl0.sequencer.pio-slave-port            2                       # Packet count per connected master and slave (bytes)
system.iobus.pkt_count_system.ruby.l1_cntrl3.sequencer.mem-master-port::system.ruby.l1_cntrl3.sequencer.pio-slave-port          614                       # Packet count per connected master and slave (bytes)
system.iobus.pkt_count_system.ruby.l1_cntrl3.sequencer.mem-master-port::total          626                       # Packet count per connected master and slave (bytes)
system.iobus.pkt_count::total                    4374                       # Packet count per connected master and slave (bytes)
system.iobus.pkt_size_system.pc.south_bridge.io_apic.int_master::system.ruby.l1_cntrl1.sequencer.pio-slave-port            4                       # Cumulative packet size per connected master and slave (bytes)
system.iobus.pkt_size_system.pc.south_bridge.io_apic.int_master::system.ruby.l1_cntrl2.sequencer.pio-slave-port            4                       # Cumulative packet size per connected master and slave (bytes)
system.iobus.pkt_size_system.pc.south_bridge.io_apic.int_master::system.ruby.l1_cntrl3.sequencer.pio-slave-port            4                       # Cumulative packet size per connected master and slave (bytes)
system.iobus.pkt_size_system.pc.south_bridge.io_apic.int_master::total           12                       # Cumulative packet size per connected master and slave (bytes)
system.iobus.pkt_size_system.ruby.l1_cntrl0.sequencer.mem-master-port::system.ruby.l1_cntrl0.sequencer.pio-slave-port         1240                       # Cumulative packet size per connected master and slave (bytes)
system.iobus.pkt_size_system.ruby.l1_cntrl0.sequencer.mem-master-port::system.ruby.l1_cntrl1.sequencer.pio-slave-port            4                       # Cumulative packet size per connected master and slave (bytes)
system.iobus.pkt_size_system.ruby.l1_cntrl0.sequencer.mem-master-port::system.ruby.l1_cntrl2.sequencer.pio-slave-port            4                       # Cumulative packet size per connected master and slave (bytes)
system.iobus.pkt_size_system.ruby.l1_cntrl0.sequencer.mem-master-port::system.ruby.l1_cntrl3.sequencer.pio-slave-port            4                       # Cumulative packet size per connected master and slave (bytes)
system.iobus.pkt_size_system.ruby.l1_cntrl0.sequencer.mem-master-port::total         1252                       # Cumulative packet size per connected master and slave (bytes)
system.iobus.pkt_size_system.ruby.l1_cntrl1.sequencer.mem-master-port::system.pc.south_bridge.io_apic.pio           12                       # Cumulative packet size per connected master and slave (bytes)
system.iobus.pkt_size_system.ruby.l1_cntrl1.sequencer.mem-master-port::system.pc.com_1.pio          927                       # Cumulative packet size per connected master and slave (bytes)
system.iobus.pkt_size_system.ruby.l1_cntrl1.sequencer.mem-master-port::system.ruby.l1_cntrl1.sequencer.pio-slave-port         1228                       # Cumulative packet size per connected master and slave (bytes)
system.iobus.pkt_size_system.ruby.l1_cntrl1.sequencer.mem-master-port::system.ruby.l1_cntrl2.sequencer.pio-slave-port            4                       # Cumulative packet size per connected master and slave (bytes)
system.iobus.pkt_size_system.ruby.l1_cntrl1.sequencer.mem-master-port::total         2171                       # Cumulative packet size per connected master and slave (bytes)
system.iobus.pkt_size_system.ruby.l1_cntrl2.sequencer.mem-master-port::system.pc.south_bridge.io_apic.pio           16                       # Cumulative packet size per connected master and slave (bytes)
system.iobus.pkt_size_system.ruby.l1_cntrl2.sequencer.mem-master-port::system.ruby.l1_cntrl1.sequencer.pio-slave-port            4                       # Cumulative packet size per connected master and slave (bytes)
system.iobus.pkt_size_system.ruby.l1_cntrl2.sequencer.mem-master-port::system.ruby.l1_cntrl2.sequencer.pio-slave-port         1252                       # Cumulative packet size per connected master and slave (bytes)
system.iobus.pkt_size_system.ruby.l1_cntrl2.sequencer.mem-master-port::system.ruby.l1_cntrl3.sequencer.pio-slave-port            8                       # Cumulative packet size per connected master and slave (bytes)
system.iobus.pkt_size_system.ruby.l1_cntrl2.sequencer.mem-master-port::total         1280                       # Cumulative packet size per connected master and slave (bytes)
system.iobus.pkt_size_system.ruby.l1_cntrl3.sequencer.mem-master-port::system.pc.south_bridge.io_apic.pio           16                       # Cumulative packet size per connected master and slave (bytes)
system.iobus.pkt_size_system.ruby.l1_cntrl3.sequencer.mem-master-port::system.pc.com_1.pio            1                       # Cumulative packet size per connected master and slave (bytes)
system.iobus.pkt_size_system.ruby.l1_cntrl3.sequencer.mem-master-port::system.ruby.l1_cntrl0.sequencer.pio-slave-port            4                       # Cumulative packet size per connected master and slave (bytes)
system.iobus.pkt_size_system.ruby.l1_cntrl3.sequencer.mem-master-port::system.ruby.l1_cntrl3.sequencer.pio-slave-port         1228                       # Cumulative packet size per connected master and slave (bytes)
system.iobus.pkt_size_system.ruby.l1_cntrl3.sequencer.mem-master-port::total         1249                       # Cumulative packet size per connected master and slave (bytes)
system.iobus.pkt_size::total                     5964                       # Cumulative packet size per connected master and slave (bytes)
system.iobus.reqLayer8.occupancy                19497                       # Layer occupancy (ticks)
system.iobus.reqLayer8.utilization                0.0                       # Layer utilization (%)
system.iobus.reqLayer12.occupancy             1212000                       # Layer occupancy (ticks)
system.iobus.reqLayer12.utilization               0.0                       # Layer utilization (%)
system.iobus.reqLayer17.occupancy              711498                       # Layer occupancy (ticks)
system.iobus.reqLayer17.utilization               0.0                       # Layer utilization (%)
system.iobus.reqLayer18.occupancy              702500                       # Layer occupancy (ticks)
system.iobus.reqLayer18.utilization               0.0                       # Layer utilization (%)
system.iobus.reqLayer19.occupancy              822758                       # Layer occupancy (ticks)
system.iobus.reqLayer19.utilization               0.0                       # Layer utilization (%)
system.iobus.reqLayer20.occupancy              713000                       # Layer occupancy (ticks)
system.iobus.reqLayer20.utilization               0.0                       # Layer utilization (%)
system.iobus.respLayer0.occupancy                3000                       # Layer occupancy (ticks)
system.iobus.respLayer0.utilization               0.0                       # Layer utilization (%)
system.iobus.respLayer2.occupancy              471500                       # Layer occupancy (ticks)
system.iobus.respLayer2.utilization               0.0                       # Layer utilization (%)
system.iobus.respLayer4.occupancy             2088500                       # Layer occupancy (ticks)
system.iobus.respLayer4.utilization               0.0                       # Layer utilization (%)
system.iobus.respLayer6.occupancy              482000                       # Layer occupancy (ticks)
system.iobus.respLayer6.utilization               0.0                       # Layer utilization (%)
system.iobus.respLayer8.occupancy              469500                       # Layer occupancy (ticks)
system.iobus.respLayer8.utilization               0.0                       # Layer utilization (%)
system.pc.south_bridge.ide.disks.dma_read_full_pages            0                       # Number of full page size DMA reads (not PRD).
system.pc.south_bridge.ide.disks.dma_read_bytes            0                       # Number of bytes transfered via DMA reads (not PRD).
system.pc.south_bridge.ide.disks.dma_read_txs            0                       # Number of DMA read transactions (not PRD).
system.pc.south_bridge.ide.disks.dma_write_full_pages            0                       # Number of full page size DMA writes.
system.pc.south_bridge.ide.disks.dma_write_bytes            0                       # Number of bytes transfered via DMA writes.
system.pc.south_bridge.ide.disks.dma_write_txs            0                       # Number of DMA write transactions.
system.ruby.clk_domain.clock                      500                       # Clock period in ticks
system.ruby.delayHist::bucket_size                  4                       # delay histogram for all message
system.ruby.delayHist::max_bucket                  39                       # delay histogram for all message
system.ruby.delayHist::samples               51405067                       # delay histogram for all message
system.ruby.delayHist::mean                  0.963602                       # delay histogram for all message
system.ruby.delayHist::stdev                 2.603720                       # delay histogram for all message
system.ruby.delayHist                    |    45219325     87.97%     87.97% |        5761      0.01%     87.98% |     6178474     12.02%    100.00% |         382      0.00%    100.00% |        1107      0.00%    100.00% |           2      0.00%    100.00% |          10      0.00%    100.00% |           1      0.00%    100.00% |           2      0.00%    100.00% |           3      0.00%    100.00% # delay histogram for all message
system.ruby.delayHist::total                 51405067                       # delay histogram for all message
system.ruby.outstanding_req_hist_seqr::bucket_size            1                      
system.ruby.outstanding_req_hist_seqr::max_bucket            9                      
system.ruby.outstanding_req_hist_seqr::samples    936493891                      
system.ruby.outstanding_req_hist_seqr::mean     1.000000                      
system.ruby.outstanding_req_hist_seqr::gmean     1.000000                      
system.ruby.outstanding_req_hist_seqr::stdev     0.000510                      
system.ruby.outstanding_req_hist_seqr    |           0      0.00%      0.00% |   936493647    100.00%    100.00% |         244      0.00%    100.00% |           0      0.00%    100.00% |           0      0.00%    100.00% |           0      0.00%    100.00% |           0      0.00%    100.00% |           0      0.00%    100.00% |           0      0.00%    100.00% |           0      0.00%    100.00%
system.ruby.outstanding_req_hist_seqr::total    936493891                      
system.ruby.latency_hist_seqr::bucket_size          256                      
system.ruby.latency_hist_seqr::max_bucket         2559                      
system.ruby.latency_hist_seqr::samples      936493891                      
system.ruby.latency_hist_seqr::mean          1.584626                      
system.ruby.latency_hist_seqr::gmean         1.035809                      
system.ruby.latency_hist_seqr::stdev        10.469430                      
system.ruby.latency_hist_seqr            |   936346775     99.98%     99.98% |       67662      0.01%     99.99% |       62715      0.01%    100.00% |        9409      0.00%    100.00% |        6096      0.00%    100.00% |         821      0.00%    100.00% |         362      0.00%    100.00% |          47      0.00%    100.00% |           4      0.00%    100.00% |           0      0.00%    100.00%
system.ruby.latency_hist_seqr::total        936493891                      
system.ruby.hit_latency_hist_seqr::bucket_size            1                      
system.ruby.hit_latency_hist_seqr::max_bucket            9                      
system.ruby.hit_latency_hist_seqr::samples    927220067                      
system.ruby.hit_latency_hist_seqr::mean             1                      
system.ruby.hit_latency_hist_seqr::gmean            1                      
system.ruby.hit_latency_hist_seqr        |           0      0.00%      0.00% |   927220067    100.00%    100.00% |           0      0.00%    100.00% |           0      0.00%    100.00% |           0      0.00%    100.00% |           0      0.00%    100.00% |           0      0.00%    100.00% |           0      0.00%    100.00% |           0      0.00%    100.00% |           0      0.00%    100.00%
system.ruby.hit_latency_hist_seqr::total    927220067                      
system.ruby.miss_latency_hist_seqr::bucket_size          256                      
system.ruby.miss_latency_hist_seqr::max_bucket         2559                      
system.ruby.miss_latency_hist_seqr::samples      9273824                      
system.ruby.miss_latency_hist_seqr::mean    60.037017                      
system.ruby.miss_latency_hist_seqr::gmean    34.911483                      
system.ruby.miss_latency_hist_seqr::stdev    87.279623                      
system.ruby.miss_latency_hist_seqr       |     9126708     98.41%     98.41% |       67662      0.73%     99.14% |       62715      0.68%     99.82% |        9409      0.10%     99.92% |        6096      0.07%     99.99% |         821      0.01%    100.00% |         362      0.00%    100.00% |          47      0.00%    100.00% |           4      0.00%    100.00% |           0      0.00%    100.00%
system.ruby.miss_latency_hist_seqr::total      9273824                      
system.ruby.l1_cntrl0.L1Dcache.demand_hits      1311600                       # Number of cache demand hits
system.ruby.l1_cntrl0.L1Dcache.demand_misses        56508                       # Number of cache demand misses
[...]
system.ruby.DMA_Controller.ReadRequest   |           2    100.00%    100.00% |           0      0.00%    100.00%
system.ruby.DMA_Controller.ReadRequest::total            2                      
system.ruby.DMA_Controller.WriteRequest  |         128    100.00%    100.00% |           0      0.00%    100.00%
system.ruby.DMA_Controller.WriteRequest::total          128                      
system.ruby.DMA_Controller.Data          |           2    100.00%    100.00% |           0      0.00%    100.00%
system.ruby.DMA_Controller.Data::total              2                      
system.ruby.DMA_Controller.Ack           |         128    100.00%    100.00% |           0      0.00%    100.00%
system.ruby.DMA_Controller.Ack::total             128                      
system.ruby.DMA_Controller.READY.ReadRequest |           2    100.00%    100.00% |           0      0.00%    100.00%
system.ruby.DMA_Controller.READY.ReadRequest::total            2                      
system.ruby.DMA_Controller.READY.WriteRequest |         128    100.00%    100.00% |           0      0.00%    100.00%
system.ruby.DMA_Controller.READY.WriteRequest::total          128                      
system.ruby.DMA_Controller.BUSY_RD.Data  |           2    100.00%    100.00% |           0      0.00%    100.00%
system.ruby.DMA_Controller.BUSY_RD.Data::total            2                      
system.ruby.DMA_Controller.BUSY_WR.Ack   |         128    100.00%    100.00% |           0      0.00%    100.00%
system.ruby.DMA_Controller.BUSY_WR.Ack::total          128                      
system.ruby.L1Cache_Controller.Load      |     2570774      2.30%      2.30% |      472736      0.42%      2.72% |   108143649     96.58%     99.30% |      785728      0.70%    100.00%
system.ruby.L1Cache_Controller.Load::total    111972887                      
system.ruby.L1Cache_Controller.Ifetch    |    15278447      1.94%      1.94% |     2144814      0.27%      2.21% |   765702388     97.29%     99.51% |     3877744      0.49%    100.00%
system.ruby.L1Cache_Controller.Ifetch::total    787003393                      
system.ruby.L1Cache_Controller.Store     |     1957606      3.17%      3.17% |      347330      0.56%      3.73% |    58808451     95.26%     98.99% |      620717      1.01%    100.00%
system.ruby.L1Cache_Controller.Store::total     61734104                      
system.ruby.L1Cache_Controller.Inv       |       30208     28.97%     28.97% |       22886     21.95%     50.92% |       24469     23.47%     74.38% |       26711     25.62%    100.00%
system.ruby.L1Cache_Controller.Inv::total       104274                      
system.ruby.L1Cache_Controller.L1_Replacement |      147361      1.57%      1.57% |       38584      0.41%      1.98% |     9165952     97.41%     99.39% |       57373      0.61%    100.00%
system.ruby.L1Cache_Controller.L1_Replacement::total      9409270                      
system.ruby.L1Cache_Controller.Fwd_GETX  |        1374     32.34%     32.34% |         719     16.93%     49.27% |         949     22.34%     71.61% |        1206     28.39%    100.00%
system.ruby.L1Cache_Controller.Fwd_GETX::total         4248                      
system.ruby.L1Cache_Controller.Fwd_GETS  |        4710     32.62%     32.62% |        3702     25.64%     58.25% |        1917     13.28%     71.53% |        4111     28.47%    100.00%
system.ruby.L1Cache_Controller.Fwd_GETS::total        14440                      
system.ruby.L1Cache_Controller.Data      |         434     26.16%     26.16% |         260     15.67%     41.83% |         672     40.51%     82.34% |         293     17.66%    100.00%
system.ruby.L1Cache_Controller.Data::total         1659                      
system.ruby.L1Cache_Controller.Data_Exclusive |       74965      1.29%      1.29% |       12952      0.22%      1.51% |     5702840     98.22%     99.73% |       15685      0.27%    100.00%
system.ruby.L1Cache_Controller.Data_Exclusive::total      5806442                      
system.ruby.L1Cache_Controller.DataS_fromL1 |        4229     29.29%     29.29% |        3729     25.82%     55.11% |        2580     17.87%     72.98% |        3902     27.02%    100.00%
system.ruby.L1Cache_Controller.DataS_fromL1::total        14440                      
system.ruby.L1Cache_Controller.Data_all_Acks |       86072      2.36%      2.36% |       38597      1.06%      3.41% |     3471762     95.05%     98.46% |       56173      1.54%    100.00%
system.ruby.L1Cache_Controller.Data_all_Acks::total      3652604                      
system.ruby.L1Cache_Controller.Ack       |        8339     46.08%     46.08% |        2735     15.11%     61.20% |        3930     21.72%     82.91% |        3092     17.09%    100.00%
system.ruby.L1Cache_Controller.Ack::total        18096                      
system.ruby.L1Cache_Controller.Ack_all   |        4551     38.88%     38.88% |        1988     16.98%     55.86% |        2807     23.98%     79.84% |        2360     20.16%    100.00%
system.ruby.L1Cache_Controller.Ack_all::total        11706                      
system.ruby.L1Cache_Controller.WB_Ack    |      101366      1.10%      1.10% |       13787      0.15%      1.25% |     9083464     98.52%     99.77% |       20925      0.23%    100.00%
system.ruby.L1Cache_Controller.WB_Ack::total      9219542                      
system.ruby.L1Cache_Controller.NP.Load   |       80309      1.37%      1.37% |       15546      0.27%      1.64% |     5727380     98.03%     99.67% |       19530      0.33%    100.00%
system.ruby.L1Cache_Controller.NP.Load::total      5842765                      
system.ruby.L1Cache_Controller.NP.Ifetch |       35697     26.26%     26.26% |       17421     12.81%     39.07% |       56039     41.22%     80.29% |       26789     19.71%    100.00%
system.ruby.L1Cache_Controller.NP.Ifetch::total       135946                      
system.ruby.L1Cache_Controller.NP.Store  |       31355      0.91%      0.91% |        6168      0.18%      1.09% |     3382533     98.58%     99.67% |       11211      0.33%    100.00%
system.ruby.L1Cache_Controller.NP.Store::total      3431267                      
system.ruby.L1Cache_Controller.NP.Inv    |        7975     31.99%     31.99% |        2901     11.64%     43.62% |       10115     40.57%     84.19% |        3942     15.81%    100.00%
system.ruby.L1Cache_Controller.NP.Inv::total        24933                      
system.ruby.L1Cache_Controller.I.Load    |        4799     27.39%     27.39% |        5518     31.49%     58.88% |        1301      7.43%     66.31% |        5903     33.69%    100.00%
system.ruby.L1Cache_Controller.I.Load::total        17521                      
system.ruby.L1Cache_Controller.I.Ifetch  |        9906     26.54%     26.54% |        8041     21.54%     48.09% |       10181     27.28%     75.36% |        9195     24.64%    100.00%
system.ruby.L1Cache_Controller.I.Ifetch::total        37323                      
system.ruby.L1Cache_Controller.I.Store   |        3633     35.21%     35.21% |        2844     27.56%     62.77% |         420      4.07%     66.84% |        3422     33.16%    100.00%
system.ruby.L1Cache_Controller.I.Store::total        10319                      
system.ruby.L1Cache_Controller.I.L1_Replacement |        5268     29.35%     29.35% |        4035     22.48%     51.83% |        3279     18.27%     70.09% |        5368     29.91%    100.00%
system.ruby.L1Cache_Controller.I.L1_Replacement::total        17950                      
system.ruby.L1Cache_Controller.S.Load    |      230918     34.27%     34.27% |       78600     11.67%     45.94% |      240591     35.71%     81.64% |      123686     18.36%    100.00%
system.ruby.L1Cache_Controller.S.Load::total       673795                      
system.ruby.L1Cache_Controller.S.Ifetch  |    15232844      1.94%      1.94% |     2119352      0.27%      2.21% |   765636166     97.31%     99.51% |     3841760      0.49%    100.00%
system.ruby.L1Cache_Controller.S.Ifetch::total    786830122                      
system.ruby.L1Cache_Controller.S.Store   |        4118     40.97%     40.97% |        1728     17.19%     58.16% |        2135     21.24%     79.41% |        2070     20.59%    100.00%
system.ruby.L1Cache_Controller.S.Store::total        10051                      
system.ruby.L1Cache_Controller.S.Inv     |       15601     26.11%     26.11% |       14688     24.58%     50.69% |       12779     21.39%     72.08% |       16680     27.92%    100.00%
system.ruby.L1Cache_Controller.S.Inv::total        59748                      
system.ruby.L1Cache_Controller.S.L1_Replacement |       40727     23.71%     23.71% |       20762     12.09%     35.80% |       79209     46.11%     81.91% |       31080     18.09%    100.00%
system.ruby.L1Cache_Controller.S.L1_Replacement::total       171778                      
system.ruby.L1Cache_Controller.E.Load    |      340893      0.73%      0.73% |       81852      0.18%      0.90% |    46206915     98.83%     99.73% |      124104      0.27%    100.00%
system.ruby.L1Cache_Controller.E.Load::total     46753764                      
system.ruby.L1Cache_Controller.E.Store   |       49229      1.74%      1.74% |        2878      0.10%      1.84% |     2769930     98.01%     99.86% |        4042      0.14%    100.00%
system.ruby.L1Cache_Controller.E.Store::total      2826079                      
system.ruby.L1Cache_Controller.E.Inv     |        2364     33.28%     33.28% |        1785     25.13%     58.41% |        1152     16.22%     74.63% |        1802     25.37%    100.00%
system.ruby.L1Cache_Controller.E.Inv::total         7103                      
system.ruby.L1Cache_Controller.E.L1_Replacement |       22147      0.75%      0.75% |        6038      0.20%      0.95% |     2930898     98.81%     99.76% |        7022      0.24%    100.00%
system.ruby.L1Cache_Controller.E.L1_Replacement::total      2966105                      
system.ruby.L1Cache_Controller.E.Fwd_GETX |         268     21.02%     21.02% |          83      6.51%     27.53% |         380     29.80%     57.33% |         544     42.67%    100.00%
system.ruby.L1Cache_Controller.E.Fwd_GETX::total         1275                      
system.ruby.L1Cache_Controller.E.Fwd_GETS |        1045     18.16%     18.16% |        2036     35.39%     53.55% |         461      8.01%     61.57% |        2211     38.43%    100.00%
system.ruby.L1Cache_Controller.E.Fwd_GETS::total         5753                      
system.ruby.L1Cache_Controller.M.Load    |     1913855      3.26%      3.26% |      291220      0.50%      3.76% |    55967462     95.37%     99.13% |      512505      0.87%    100.00%
system.ruby.L1Cache_Controller.M.Load::total     58685042                      
system.ruby.L1Cache_Controller.M.Store   |     1869271      3.37%      3.37% |      333712      0.60%      3.97% |    52653433     94.95%     98.92% |      599972      1.08%    100.00%
system.ruby.L1Cache_Controller.M.Store::total     55456388                      
system.ruby.L1Cache_Controller.M.Inv     |        4267     34.17%     34.17% |        3512     28.13%     62.30% |         423      3.39%     65.69% |        4284     34.31%    100.00%
system.ruby.L1Cache_Controller.M.Inv::total        12486                      
system.ruby.L1Cache_Controller.M.L1_Replacement |       79219      1.27%      1.27% |        7749      0.12%      1.39% |     6152566     98.39%     99.78% |       13903      0.22%    100.00%
system.ruby.L1Cache_Controller.M.L1_Replacement::total      6253437                      
system.ruby.L1Cache_Controller.M.Fwd_GETX |        1106     37.20%     37.20% |         636     21.39%     58.59% |         569     19.14%     77.73% |         662     22.27%    100.00%
system.ruby.L1Cache_Controller.M.Fwd_GETX::total         2973                      
system.ruby.L1Cache_Controller.M.Fwd_GETS |        3665     42.19%     42.19% |        1666     19.18%     61.37% |        1456     16.76%     78.13% |        1900     21.87%    100.00%
system.ruby.L1Cache_Controller.M.Fwd_GETS::total         8687                      
system.ruby.L1Cache_Controller.IS.Data_Exclusive |       74965      1.29%      1.29% |       12952      0.22%      1.51% |     5702840     98.22%     99.73% |       15685      0.27%    100.00%
system.ruby.L1Cache_Controller.IS.Data_Exclusive::total      5806442                      
system.ruby.L1Cache_Controller.IS.DataS_fromL1 |        4229     29.29%     29.29% |        3729     25.82%     55.11% |        2580     17.87%     72.98% |        3902     27.02%    100.00%
system.ruby.L1Cache_Controller.IS.DataS_fromL1::total        14440                      
system.ruby.L1Cache_Controller.IS.Data_all_Acks |       51517     24.22%     24.22% |       29845     14.03%     38.26% |       89481     42.07%     80.33% |       41830     19.67%    100.00%
system.ruby.L1Cache_Controller.IS.Data_all_Acks::total       212673                      
system.ruby.L1Cache_Controller.IM.Data   |         434     26.16%     26.16% |         260     15.67%     41.83% |         672     40.51%     82.34% |         293     17.66%    100.00%
system.ruby.L1Cache_Controller.IM.Data::total         1659                      
system.ruby.L1Cache_Controller.IM.Data_all_Acks |       34555      1.00%      1.00% |        8752      0.25%      1.26% |     3382281     98.32%     99.58% |       14343      0.42%    100.00%
system.ruby.L1Cache_Controller.IM.Data_all_Acks::total      3439931                      
system.ruby.L1Cache_Controller.SM.Inv    |           1     25.00%     25.00% |           0      0.00%     25.00% |           0      0.00%     25.00% |           3     75.00%    100.00%
system.ruby.L1Cache_Controller.SM.Inv::total            4                      
system.ruby.L1Cache_Controller.SM.Ack    |        8339     46.08%     46.08% |        2735     15.11%     61.20% |        3930     21.72%     82.91% |        3092     17.09%    100.00%
system.ruby.L1Cache_Controller.SM.Ack::total        18096                      
system.ruby.L1Cache_Controller.SM.Ack_all |        4551     38.88%     38.88% |        1988     16.98%     55.86% |        2807     23.98%     79.84% |        2360     20.16%    100.00%
system.ruby.L1Cache_Controller.SM.Ack_all::total        11706                      
system.ruby.L1Cache_Controller.M_I.Ifetch |           0      0.00%      0.00% |           0      0.00%      0.00% |           2    100.00%    100.00% |           0      0.00%    100.00%
system.ruby.L1Cache_Controller.M_I.Ifetch::total            2                      
system.ruby.L1Cache_Controller.M_I.WB_Ack |      101366      1.10%      1.10% |       13787      0.15%      1.25% |     9083464     98.52%     99.77% |       20925      0.23%    100.00%
system.ruby.L1Cache_Controller.M_I.WB_Ack::total      9219542                      
system.ruby.L2Cache_Controller.L1_GET_INSTR       173276      0.00%      0.00%
system.ruby.L2Cache_Controller.L1_GETS        5860660      0.00%      0.00%
system.ruby.L2Cache_Controller.L1_GETX        3441592      0.00%      0.00%
system.ruby.L2Cache_Controller.L1_UPGRADE        10051      0.00%      0.00%
system.ruby.L2Cache_Controller.L1_PUTX        9219542      0.00%      0.00%
system.ruby.L2Cache_Controller.L2_Replacement      1594583      0.00%      0.00%
system.ruby.L2Cache_Controller.L2_Replacement_clean      1114861      0.00%      0.00%
system.ruby.L2Cache_Controller.Mem_Data       2717436      0.00%      0.00%
system.ruby.L2Cache_Controller.Mem_Ack        2709446      0.00%      0.00%
system.ruby.L2Cache_Controller.WB_Data          21173      0.00%      0.00%
system.ruby.L2Cache_Controller.WB_Data_clean         5753      0.00%      0.00%
system.ruby.L2Cache_Controller.Ack              34889      0.00%      0.00%
system.ruby.L2Cache_Controller.Ack_all          37144      0.00%      0.00%
system.ruby.L2Cache_Controller.Unblock          14440      0.00%      0.00%
system.ruby.L2Cache_Controller.Exclusive_Unblock      9258079      0.00%      0.00%
system.ruby.L2Cache_Controller.MEM_Inv              4      0.00%      0.00%
system.ruby.L2Cache_Controller.NP.L1_GET_INSTR        29498      0.00%      0.00%
system.ruby.L2Cache_Controller.NP.L1_GETS      1633645      0.00%      0.00%
system.ruby.L2Cache_Controller.NP.L1_GETX      1054293      0.00%      0.00%
system.ruby.L2Cache_Controller.SS.L1_GET_INSTR       143751      0.00%      0.00%
system.ruby.L2Cache_Controller.SS.L1_GETS        39344      0.00%      0.00%
system.ruby.L2Cache_Controller.SS.L1_GETX         1659      0.00%      0.00%
system.ruby.L2Cache_Controller.SS.L1_UPGRADE        10047      0.00%      0.00%
system.ruby.L2Cache_Controller.SS.L2_Replacement          799      0.00%      0.00%
system.ruby.L2Cache_Controller.SS.L2_Replacement_clean        29242      0.00%      0.00%
system.ruby.L2Cache_Controller.M.L1_GET_INSTR           20      0.00%      0.00%
system.ruby.L2Cache_Controller.M.L1_GETS      4172827      0.00%      0.00%
system.ruby.L2Cache_Controller.M.L1_GETX      2381390      0.00%      0.00%
system.ruby.L2Cache_Controller.M.L2_Replacement      1592424      0.00%      0.00%
system.ruby.L2Cache_Controller.M.L2_Replacement_clean      1067392      0.00%      0.00%
system.ruby.L2Cache_Controller.MT.L1_GETS        14440      0.00%      0.00%
system.ruby.L2Cache_Controller.MT.L1_GETX         4248      0.00%      0.00%
system.ruby.L2Cache_Controller.MT.L1_PUTX      9219542      0.00%      0.00%
system.ruby.L2Cache_Controller.MT.L2_Replacement         1360      0.00%      0.00%
system.ruby.L2Cache_Controller.MT.L2_Replacement_clean        18227      0.00%      0.00%
system.ruby.L2Cache_Controller.MT.MEM_Inv            2      0.00%      0.00%
system.ruby.L2Cache_Controller.M_I.L1_GET_INSTR            7      0.00%      0.00%
system.ruby.L2Cache_Controller.M_I.Mem_Ack      2709446      0.00%      0.00%
system.ruby.L2Cache_Controller.MT_I.WB_Data          993      0.00%      0.00%
system.ruby.L2Cache_Controller.MT_I.Ack_all          369      0.00%      0.00%
system.ruby.L2Cache_Controller.MT_I.MEM_Inv            2      0.00%      0.00%
system.ruby.L2Cache_Controller.MCT_I.WB_Data        11493      0.00%      0.00%
system.ruby.L2Cache_Controller.MCT_I.Ack_all         6734      0.00%      0.00%
system.ruby.L2Cache_Controller.I_I.Ack          33971      0.00%      0.00%
system.ruby.L2Cache_Controller.I_I.Ack_all        29242      0.00%      0.00%
system.ruby.L2Cache_Controller.S_I.Ack            918      0.00%      0.00%
system.ruby.L2Cache_Controller.S_I.Ack_all          799      0.00%      0.00%
system.ruby.L2Cache_Controller.ISS.L1_GETS           30      0.00%      0.00%
system.ruby.L2Cache_Controller.ISS.Mem_Data      1633615      0.00%      0.00%
system.ruby.L2Cache_Controller.IS.Mem_Data        29528      0.00%      0.00%
system.ruby.L2Cache_Controller.IM.Mem_Data      1054293      0.00%      0.00%
system.ruby.L2Cache_Controller.SS_MB.L1_GETS           94      0.00%      0.00%
system.ruby.L2Cache_Controller.SS_MB.L1_UPGRADE            4      0.00%      0.00%
system.ruby.L2Cache_Controller.SS_MB.Exclusive_Unblock        11706      0.00%      0.00%
system.ruby.L2Cache_Controller.MT_MB.L1_GETS          277      0.00%      0.00%
system.ruby.L2Cache_Controller.MT_MB.L1_GETX            2      0.00%      0.00%
system.ruby.L2Cache_Controller.MT_MB.Exclusive_Unblock      9246373      0.00%      0.00%
system.ruby.L2Cache_Controller.MT_IIB.L1_GETS            3      0.00%      0.00%
system.ruby.L2Cache_Controller.MT_IIB.WB_Data         8671      0.00%      0.00%
system.ruby.L2Cache_Controller.MT_IIB.WB_Data_clean         5738      0.00%      0.00%
system.ruby.L2Cache_Controller.MT_IIB.Unblock           31      0.00%      0.00%
system.ruby.L2Cache_Controller.MT_IB.WB_Data           16      0.00%      0.00%
system.ruby.L2Cache_Controller.MT_IB.WB_Data_clean           15      0.00%      0.00%
system.ruby.L2Cache_Controller.MT_SB.Unblock        14409      0.00%      0.00%

---------- End Simulation Statistics   ----------
