
---------- Begin Simulation Statistics ----------
sim_seconds                                  0.470204                       # Number of seconds simulated
sim_ticks                                470203684000                       # Number of ticks simulated
final_tick                               52378315063001                       # Number of ticks from beginning of simulation (restored from checkpoints and never reset)
sim_freq                                 1000000000000                       # Frequency of simulated ticks
host_inst_rate                                 160498                       # Simulator instruction rate (inst/s)
host_op_rate                                   289664                       # Simulator op (including micro ops) rate (op/s)
host_tick_rate                              280709258                       # Simulator tick rate (ticks/s)
host_mem_usage                                1816568                       # Number of bytes of host memory used
host_seconds                                  1675.06                       # Real time elapsed on the host
sim_insts                                   268843549                       # Number of instructions simulated
sim_ops                                     485203922                       # Number of ops (including micro ops) simulated
system.voltage_domain.voltage                       1                       # Voltage in Volts
system.clk_domain.clock                          1000                       # Clock period in ticks
system.mem_ctrls.bytes_read::ruby.dir_cntrl0     11870912                       # Number of bytes read from this memory
system.mem_ctrls.bytes_read::total           11870912                       # Number of bytes read from this memory
system.mem_ctrls.bytes_written::ruby.dir_cntrl0     11983360                       # Number of bytes written to this memory
system.mem_ctrls.bytes_written::total        11983360                       # Number of bytes written to this memory
system.mem_ctrls.num_reads::ruby.dir_cntrl0       185483                       # Number of read requests responded to by this memory
system.mem_ctrls.num_reads::total              185483                       # Number of read requests responded to by this memory
system.mem_ctrls.num_writes::ruby.dir_cntrl0       187240                       # Number of write requests responded to by this memory
system.mem_ctrls.num_writes::total             187240                       # Number of write requests responded to by this memory
system.mem_ctrls.bw_read::ruby.dir_cntrl0     25246319                       # Total read bandwidth from this memory (bytes/s)
system.mem_ctrls.bw_read::total              25246319                       # Total read bandwidth from this memory (bytes/s)
system.mem_ctrls.bw_write::ruby.dir_cntrl0     25485466                       # Write bandwidth from this memory (bytes/s)
system.mem_ctrls.bw_write::total             25485466                       # Write bandwidth from this memory (bytes/s)
system.mem_ctrls.bw_total::ruby.dir_cntrl0     50731785                       # Total bandwidth to/from this memory (bytes/s)
system.mem_ctrls.bw_total::total             50731785                       # Total bandwidth to/from this memory (bytes/s)
system.mem_ctrls.readReqs                      185483                       # Number of read requests accepted
system.mem_ctrls.writeReqs                     187240                       # Number of write requests accepted
system.mem_ctrls.readBursts                    185483                       # Number of DRAM read bursts, including those serviced by the write queue
system.mem_ctrls.writeBursts                   187240                       # Number of DRAM write bursts, including those merged in the write queue
system.mem_ctrls.bytesReadDRAM                8006016                       # Total number of bytes read from DRAM
system.mem_ctrls.bytesReadWrQ                 3864896                       # Total number of bytes read from write queue
system.mem_ctrls.bytesWritten                 9002752                       # Total number of bytes written to DRAM
system.mem_ctrls.bytesReadSys                11870912                       # Total read bytes from the system interface side
system.mem_ctrls.bytesWrittenSys             11983360                       # Total written bytes from the system interface side
system.mem_ctrls.servicedByWrQ                  60389                       # Number of DRAM read bursts serviced by the write queue
system.mem_ctrls.mergedWrBursts                 46575                       # Number of DRAM write bursts merged with an existing one
system.mem_ctrls.neitherReadNorWriteReqs            0                       # Number of requests that are neither read nor write
system.mem_ctrls.perBankRdBursts::0              3626                       # Per bank write bursts
system.mem_ctrls.perBankRdBursts::1              6566                       # Per bank write bursts
system.mem_ctrls.perBankRdBursts::2             13300                       # Per bank write bursts
system.mem_ctrls.perBankRdBursts::3             12894                       # Per bank write bursts
system.mem_ctrls.perBankRdBursts::4             12413                       # Per bank write bursts
system.mem_ctrls.perBankRdBursts::5              6923                       # Per bank write bursts
system.mem_ctrls.perBankRdBursts::6              5406                       # Per bank write bursts
system.mem_ctrls.perBankRdBursts::7              5244                       # Per bank write bursts
system.mem_ctrls.perBankRdBursts::8              5242                       # Per bank write bursts
system.mem_ctrls.perBankRdBursts::9              5227                       # Per bank write bursts
system.mem_ctrls.perBankRdBursts::10             9624                       # Per bank write bursts
system.mem_ctrls.perBankRdBursts::11            15396                       # Per bank write bursts
system.mem_ctrls.perBankRdBursts::12            10771                       # Per bank write bursts
system.mem_ctrls.perBankRdBursts::13             4351                       # Per bank write bursts
system.mem_ctrls.perBankRdBursts::14             4333                       # Per bank write bursts
system.mem_ctrls.perBankRdBursts::15             3778                       # Per bank write bursts
system.mem_ctrls.perBankWrBursts::0              3820                       # Per bank write bursts
system.mem_ctrls.perBankWrBursts::1              6853                       # Per bank write bursts
system.mem_ctrls.perBankWrBursts::2             17179                       # Per bank write bursts
system.mem_ctrls.perBankWrBursts::3             13175                       # Per bank write bursts
system.mem_ctrls.perBankWrBursts::4             12710                       # Per bank write bursts
system.mem_ctrls.perBankWrBursts::5              7180                       # Per bank write bursts
system.mem_ctrls.perBankWrBursts::6              5570                       # Per bank write bursts
system.mem_ctrls.perBankWrBursts::7              5440                       # Per bank write bursts
system.mem_ctrls.perBankWrBursts::8              5899                       # Per bank write bursts
system.mem_ctrls.perBankWrBursts::9              5395                       # Per bank write bursts
system.mem_ctrls.perBankWrBursts::10             9804                       # Per bank write bursts
system.mem_ctrls.perBankWrBursts::11            19823                       # Per bank write bursts
system.mem_ctrls.perBankWrBursts::12            14577                       # Per bank write bursts
system.mem_ctrls.perBankWrBursts::13             4348                       # Per bank write bursts
system.mem_ctrls.perBankWrBursts::14             4734                       # Per bank write bursts
system.mem_ctrls.perBankWrBursts::15             4161                       # Per bank write bursts
system.mem_ctrls.numRdRetry                         0                       # Number of times read queue was full causing retry
system.mem_ctrls.numWrRetry                         0                       # Number of times write queue was full causing retry
system.mem_ctrls.totGap                  470203688000                       # Total gap between requests
system.mem_ctrls.readPktSize::0                     0                       # Read request sizes (log2)
system.mem_ctrls.readPktSize::1                     0                       # Read request sizes (log2)
system.mem_ctrls.readPktSize::2                     0                       # Read request sizes (log2)
system.mem_ctrls.readPktSize::3                     0                       # Read request sizes (log2)
system.mem_ctrls.readPktSize::4                     0                       # Read request sizes (log2)
system.mem_ctrls.readPktSize::5                     0                       # Read request sizes (log2)
system.mem_ctrls.readPktSize::6                185483                       # Read request sizes (log2)
system.mem_ctrls.writePktSize::0                    0                       # Write request sizes (log2)
system.mem_ctrls.writePktSize::1                    0                       # Write request sizes (log2)
system.mem_ctrls.writePktSize::2                    0                       # Write request sizes (log2)
system.mem_ctrls.writePktSize::3                    0                       # Write request sizes (log2)
system.mem_ctrls.writePktSize::4                    0                       # Write request sizes (log2)
system.mem_ctrls.writePktSize::5                    0                       # Write request sizes (log2)
system.mem_ctrls.writePktSize::6               187240                       # Write request sizes (log2)
system.mem_ctrls.rdQLenPdf::0                  123183                       # What read queue length does an incoming req see
system.mem_ctrls.rdQLenPdf::1                    1908                       # What read queue length does an incoming req see
system.mem_ctrls.rdQLenPdf::2                       3                       # What read queue length does an incoming req see
system.mem_ctrls.rdQLenPdf::3                       0                       # What read queue length does an incoming req see
system.mem_ctrls.rdQLenPdf::4                       0                       # What read queue length does an incoming req see
system.mem_ctrls.rdQLenPdf::5                       0                       # What read queue length does an incoming req see
system.mem_ctrls.rdQLenPdf::6                       0                       # What read queue length does an incoming req see
system.mem_ctrls.rdQLenPdf::7                       0                       # What read queue length does an incoming req see
system.mem_ctrls.rdQLenPdf::8                       0                       # What read queue length does an incoming req see
system.mem_ctrls.rdQLenPdf::9                       0                       # What read queue length does an incoming req see
system.mem_ctrls.rdQLenPdf::10                      0                       # What read queue length does an incoming req see
system.mem_ctrls.rdQLenPdf::11                      0                       # What read queue length does an incoming req see
system.mem_ctrls.rdQLenPdf::12                      0                       # What read queue length does an incoming req see
system.mem_ctrls.rdQLenPdf::13                      0                       # What read queue length does an incoming req see
system.mem_ctrls.rdQLenPdf::14                      0                       # What read queue length does an incoming req see
system.mem_ctrls.rdQLenPdf::15                      0                       # What read queue length does an incoming req see
system.mem_ctrls.rdQLenPdf::16                      0                       # What read queue length does an incoming req see
system.mem_ctrls.rdQLenPdf::17                      0                       # What read queue length does an incoming req see
system.mem_ctrls.rdQLenPdf::18                      0                       # What read queue length does an incoming req see
system.mem_ctrls.rdQLenPdf::19                      0                       # What read queue length does an incoming req see
system.mem_ctrls.rdQLenPdf::20                      0                       # What read queue length does an incoming req see
system.mem_ctrls.rdQLenPdf::21                      0                       # What read queue length does an incoming req see
system.mem_ctrls.rdQLenPdf::22                      0                       # What read queue length does an incoming req see
system.mem_ctrls.rdQLenPdf::23                      0                       # What read queue length does an incoming req see
system.mem_ctrls.rdQLenPdf::24                      0                       # What read queue length does an incoming req see
system.mem_ctrls.rdQLenPdf::25                      0                       # What read queue length does an incoming req see
system.mem_ctrls.rdQLenPdf::26                      0                       # What read queue length does an incoming req see
system.mem_ctrls.rdQLenPdf::27                      0                       # What read queue length does an incoming req see
system.mem_ctrls.rdQLenPdf::28                      0                       # What read queue length does an incoming req see
system.mem_ctrls.rdQLenPdf::29                      0                       # What read queue length does an incoming req see
system.mem_ctrls.rdQLenPdf::30                      0                       # What read queue length does an incoming req see
system.mem_ctrls.rdQLenPdf::31                      0                       # What read queue length does an incoming req see
system.mem_ctrls.wrQLenPdf::0                       0                       # What write queue length does an incoming req see
system.mem_ctrls.wrQLenPdf::1                       0                       # What write queue length does an incoming req see
system.mem_ctrls.wrQLenPdf::2                       0                       # What write queue length does an incoming req see
system.mem_ctrls.wrQLenPdf::3                       0                       # What write queue length does an incoming req see
system.mem_ctrls.wrQLenPdf::4                       0                       # What write queue length does an incoming req see
system.mem_ctrls.wrQLenPdf::5                       0                       # What write queue length does an incoming req see
system.mem_ctrls.wrQLenPdf::6                       0                       # What write queue length does an incoming req see
system.mem_ctrls.wrQLenPdf::7                       0                       # What write queue length does an incoming req see
system.mem_ctrls.wrQLenPdf::8                       0                       # What write queue length does an incoming req see
system.mem_ctrls.wrQLenPdf::9                       0                       # What write queue length does an incoming req see
system.mem_ctrls.wrQLenPdf::10                      0                       # What write queue length does an incoming req see
system.mem_ctrls.wrQLenPdf::11                      0                       # What write queue length does an incoming req see
system.mem_ctrls.wrQLenPdf::12                      0                       # What write queue length does an incoming req see
system.mem_ctrls.wrQLenPdf::13                      0                       # What write queue length does an incoming req see
system.mem_ctrls.wrQLenPdf::14                      0                       # What write queue length does an incoming req see
system.mem_ctrls.wrQLenPdf::15                   1458                       # What write queue length does an incoming req see
system.mem_ctrls.wrQLenPdf::16                   1618                       # What write queue length does an incoming req see
system.mem_ctrls.wrQLenPdf::17                   7997                       # What write queue length does an incoming req see
system.mem_ctrls.wrQLenPdf::18                   8619                       # What write queue length does an incoming req see
system.mem_ctrls.wrQLenPdf::19                   8672                       # What write queue length does an incoming req see
system.mem_ctrls.wrQLenPdf::20                   8686                       # What write queue length does an incoming req see
system.mem_ctrls.wrQLenPdf::21                   8717                       # What write queue length does an incoming req see
system.mem_ctrls.wrQLenPdf::22                   8713                       # What write queue length does an incoming req see
system.mem_ctrls.wrQLenPdf::23                   8716                       # What write queue length does an incoming req see
system.mem_ctrls.wrQLenPdf::24                   8702                       # What write queue length does an incoming req see
system.mem_ctrls.wrQLenPdf::25                   8734                       # What write queue length does an incoming req see
system.mem_ctrls.wrQLenPdf::26                   8658                       # What write queue length does an incoming req see
system.mem_ctrls.wrQLenPdf::27                   8572                       # What write queue length does an incoming req see
system.mem_ctrls.wrQLenPdf::28                   8558                       # What write queue length does an incoming req see
system.mem_ctrls.wrQLenPdf::29                   8545                       # What write queue length does an incoming req see
system.mem_ctrls.wrQLenPdf::30                   8538                       # What write queue length does an incoming req see
system.mem_ctrls.wrQLenPdf::31                   8533                       # What write queue length does an incoming req see
system.mem_ctrls.wrQLenPdf::32                   8528                       # What write queue length does an incoming req see
system.mem_ctrls.wrQLenPdf::33                     34                       # What write queue length does an incoming req see
system.mem_ctrls.wrQLenPdf::34                     21                       # What write queue length does an incoming req see
system.mem_ctrls.wrQLenPdf::35                     15                       # What write queue length does an incoming req see
system.mem_ctrls.wrQLenPdf::36                     10                       # What write queue length does an incoming req see
system.mem_ctrls.wrQLenPdf::37                      8                       # What write queue length does an incoming req see
system.mem_ctrls.wrQLenPdf::38                      5                       # What write queue length does an incoming req see
system.mem_ctrls.wrQLenPdf::39                      2                       # What write queue length does an incoming req see
system.mem_ctrls.wrQLenPdf::40                      3                       # What write queue length does an incoming req see
system.mem_ctrls.wrQLenPdf::41                      1                       # What write queue length does an incoming req see
system.mem_ctrls.wrQLenPdf::42                      1                       # What write queue length does an incoming req see
system.mem_ctrls.wrQLenPdf::43                      1                       # What write queue length does an incoming req see
system.mem_ctrls.wrQLenPdf::44                      0                       # What write queue length does an incoming req see
system.mem_ctrls.wrQLenPdf::45                      0                       # What write queue length does an incoming req see
system.mem_ctrls.wrQLenPdf::46                      0                       # What write queue length does an incoming req see
system.mem_ctrls.wrQLenPdf::47                      0                       # What write queue length does an incoming req see
system.mem_ctrls.wrQLenPdf::48                      0                       # What write queue length does an incoming req see
system.mem_ctrls.wrQLenPdf::49                      0                       # What write queue length does an incoming req see
system.mem_ctrls.wrQLenPdf::50                      0                       # What write queue length does an incoming req see
system.mem_ctrls.wrQLenPdf::51                      0                       # What write queue length does an incoming req see
system.mem_ctrls.wrQLenPdf::52                      0                       # What write queue length does an incoming req see
system.mem_ctrls.wrQLenPdf::53                      0                       # What write queue length does an incoming req see
system.mem_ctrls.wrQLenPdf::54                      0                       # What write queue length does an incoming req see
system.mem_ctrls.wrQLenPdf::55                      0                       # What write queue length does an incoming req see
system.mem_ctrls.wrQLenPdf::56                      0                       # What write queue length does an incoming req see
system.mem_ctrls.wrQLenPdf::57                      0                       # What write queue length does an incoming req see
system.mem_ctrls.wrQLenPdf::58                      0                       # What write queue length does an incoming req see
system.mem_ctrls.wrQLenPdf::59                      0                       # What write queue length does an incoming req see
system.mem_ctrls.wrQLenPdf::60                      0                       # What write queue length does an incoming req see
system.mem_ctrls.wrQLenPdf::61                      0                       # What write queue length does an incoming req see
system.mem_ctrls.wrQLenPdf::62                      0                       # What write queue length does an incoming req see
system.mem_ctrls.wrQLenPdf::63                      0                       # What write queue length does an incoming req see
system.mem_ctrls.bytesPerActivate::samples       138092                       # Bytes accessed per row activation
system.mem_ctrls.bytesPerActivate::mean    123.170756                       # Bytes accessed per row activation
system.mem_ctrls.bytesPerActivate::gmean    92.616778                       # Bytes accessed per row activation
system.mem_ctrls.bytesPerActivate::stdev   137.931794                       # Bytes accessed per row activation
system.mem_ctrls.bytesPerActivate::0-127        94470     68.41%     68.41% # Bytes accessed per row activation
system.mem_ctrls.bytesPerActivate::128-255        28181     20.41%     88.82% # Bytes accessed per row activation
system.mem_ctrls.bytesPerActivate::256-383         6723      4.87%     93.69% # Bytes accessed per row activation
system.mem_ctrls.bytesPerActivate::384-511         3521      2.55%     96.24% # Bytes accessed per row activation
system.mem_ctrls.bytesPerActivate::512-639         2193      1.59%     97.82% # Bytes accessed per row activation
system.mem_ctrls.bytesPerActivate::640-767         1296      0.94%     98.76% # Bytes accessed per row activation
system.mem_ctrls.bytesPerActivate::768-895          808      0.59%     99.35% # Bytes accessed per row activation
system.mem_ctrls.bytesPerActivate::896-1023          389      0.28%     99.63% # Bytes accessed per row activation
system.mem_ctrls.bytesPerActivate::1024-1151          511      0.37%    100.00% # Bytes accessed per row activation
system.mem_ctrls.bytesPerActivate::total       138092                       # Bytes accessed per row activation
system.mem_ctrls.rdPerTurnAround::samples         8523                       # Reads before turning the bus around for writes
system.mem_ctrls.rdPerTurnAround::mean      14.677696                       # Reads before turning the bus around for writes
system.mem_ctrls.rdPerTurnAround::stdev      5.603788                       # Reads before turning the bus around for writes
system.mem_ctrls.rdPerTurnAround::0-3             352      4.13%      4.13% # Reads before turning the bus around for writes
system.mem_ctrls.rdPerTurnAround::4-7             413      4.85%      8.98% # Reads before turning the bus around for writes
system.mem_ctrls.rdPerTurnAround::8-11            941     11.04%     20.02% # Reads before turning the bus around for writes
system.mem_ctrls.rdPerTurnAround::12-15          2780     32.62%     52.63% # Reads before turning the bus around for writes
system.mem_ctrls.rdPerTurnAround::16-19          3154     37.01%     89.64% # Reads before turning the bus around for writes
system.mem_ctrls.rdPerTurnAround::20-23           523      6.14%     95.78% # Reads before turning the bus around for writes
system.mem_ctrls.rdPerTurnAround::24-27           168      1.97%     97.75% # Reads before turning the bus around for writes
system.mem_ctrls.rdPerTurnAround::28-31            92      1.08%     98.83% # Reads before turning the bus around for writes
system.mem_ctrls.rdPerTurnAround::32-35            45      0.53%     99.35% # Reads before turning the bus around for writes
system.mem_ctrls.rdPerTurnAround::36-39            26      0.31%     99.66% # Reads before turning the bus around for writes
system.mem_ctrls.rdPerTurnAround::40-43            11      0.13%     99.79% # Reads before turning the bus around for writes
system.mem_ctrls.rdPerTurnAround::44-47             2      0.02%     99.81% # Reads before turning the bus around for writes
system.mem_ctrls.rdPerTurnAround::48-51             3      0.04%     99.85% # Reads before turning the bus around for writes
system.mem_ctrls.rdPerTurnAround::52-55             5      0.06%     99.91% # Reads before turning the bus around for writes
system.mem_ctrls.rdPerTurnAround::56-59             2      0.02%     99.93% # Reads before turning the bus around for writes
system.mem_ctrls.rdPerTurnAround::60-63             2      0.02%     99.95% # Reads before turning the bus around for writes
system.mem_ctrls.rdPerTurnAround::64-67             2      0.02%     99.98% # Reads before turning the bus around for writes
system.mem_ctrls.rdPerTurnAround::68-71             1      0.01%     99.99% # Reads before turning the bus around for writes
system.mem_ctrls.rdPerTurnAround::72-75             1      0.01%    100.00% # Reads before turning the bus around for writes
system.mem_ctrls.rdPerTurnAround::total          8523                       # Reads before turning the bus around for writes
system.mem_ctrls.wrPerTurnAround::samples         8523                       # Writes before turning the bus around for reads
system.mem_ctrls.wrPerTurnAround::mean      16.504517                       # Writes before turning the bus around for reads
system.mem_ctrls.wrPerTurnAround::gmean     16.461516                       # Writes before turning the bus around for reads
system.mem_ctrls.wrPerTurnAround::stdev      1.324785                       # Writes before turning the bus around for reads
system.mem_ctrls.wrPerTurnAround::16             6967     81.74%     81.74% # Writes before turning the bus around for reads
system.mem_ctrls.wrPerTurnAround::17               44      0.52%     82.26% # Writes before turning the bus around for reads
system.mem_ctrls.wrPerTurnAround::18              902     10.58%     92.84% # Writes before turning the bus around for reads
system.mem_ctrls.wrPerTurnAround::19              362      4.25%     97.09% # Writes before turning the bus around for reads
system.mem_ctrls.wrPerTurnAround::20              151      1.77%     98.86% # Writes before turning the bus around for reads
system.mem_ctrls.wrPerTurnAround::21               31      0.36%     99.23% # Writes before turning the bus around for reads
system.mem_ctrls.wrPerTurnAround::22               15      0.18%     99.40% # Writes before turning the bus around for reads
system.mem_ctrls.wrPerTurnAround::23                6      0.07%     99.47% # Writes before turning the bus around for reads
system.mem_ctrls.wrPerTurnAround::24               24      0.28%     99.75% # Writes before turning the bus around for reads
system.mem_ctrls.wrPerTurnAround::25                6      0.07%     99.82% # Writes before turning the bus around for reads
system.mem_ctrls.wrPerTurnAround::26                2      0.02%     99.85% # Writes before turning the bus around for reads
system.mem_ctrls.wrPerTurnAround::27                2      0.02%     99.87% # Writes before turning the bus around for reads
system.mem_ctrls.wrPerTurnAround::28                6      0.07%     99.94% # Writes before turning the bus around for reads
system.mem_ctrls.wrPerTurnAround::31                1      0.01%     99.95% # Writes before turning the bus around for reads
system.mem_ctrls.wrPerTurnAround::34                1      0.01%     99.96% # Writes before turning the bus around for reads
system.mem_ctrls.wrPerTurnAround::37                1      0.01%     99.98% # Writes before turning the bus around for reads
system.mem_ctrls.wrPerTurnAround::44                1      0.01%     99.99% # Writes before turning the bus around for reads
system.mem_ctrls.wrPerTurnAround::49                1      0.01%    100.00% # Writes before turning the bus around for reads
system.mem_ctrls.wrPerTurnAround::total          8523                       # Writes before turning the bus around for reads
system.mem_ctrls.totQLat                   2556432467                       # Total ticks spent queuing
system.mem_ctrls.totMemAccLat              4901944967                       # Total ticks spent from burst creation until serviced by the DRAM
system.mem_ctrls.totBusLat                  625470000                       # Total ticks spent in databus transfers
system.mem_ctrls.avgQLat                     20436.09                       # Average queueing delay per DRAM burst
system.mem_ctrls.avgBusLat                    5000.00                       # Average bus latency per DRAM burst
system.mem_ctrls.avgMemAccLat                39186.09                       # Average memory access latency per DRAM burst
system.mem_ctrls.avgRdBW                        17.03                       # Average DRAM read bandwidth in MiByte/s
system.mem_ctrls.avgWrBW                        19.15                       # Average achieved write bandwidth in MiByte/s
system.mem_ctrls.avgRdBWSys                     25.25                       # Average system read bandwidth in MiByte/s
system.mem_ctrls.avgWrBWSys                     25.49                       # Average system write bandwidth in MiByte/s
system.mem_ctrls.peakBW                      12800.00                       # Theoretical peak bandwidth in MiByte/s
system.mem_ctrls.busUtil                         0.28                       # Data bus utilization in percentage
system.mem_ctrls.busUtilRead                     0.13                       # Data bus utilization in percentage for reads
system.mem_ctrls.busUtilWrite                    0.15                       # Data bus utilization in percentage for writes
system.mem_ctrls.avgRdQLen                       1.00                       # Average read queue length when enqueuing
system.mem_ctrls.avgWrQLen                      25.42                       # Average write queue length when enqueuing
system.mem_ctrls.readRowHits                    33928                       # Number of row buffer hits during reads
system.mem_ctrls.writeRowHits                   93743                       # Number of row buffer hits during writes
system.mem_ctrls.readRowHitRate                 27.12                       # Row buffer hit rate for reads
system.mem_ctrls.writeRowHitRate                66.64                       # Row buffer hit rate for writes
system.mem_ctrls.avgGap                    1261536.55                       # Average gap between requests
system.mem_ctrls.pageHitRate                    48.04                       # Row buffer hit rate, read and write combined
system.mem_ctrls_0.actEnergy                665469000                       # Energy for activate commands per rank (pJ)
system.mem_ctrls_0.preEnergy                363103125                       # Energy for precharge commands per rank (pJ)
system.mem_ctrls_0.readEnergy               655223400                       # Energy for read commands per rank (pJ)
system.mem_ctrls_0.writeEnergy              567460080                       # Energy for write commands per rank (pJ)
system.mem_ctrls_0.refreshEnergy          30993680640                       # Energy for refresh commands per rank (pJ)
system.mem_ctrls_0.actBackEnergy          76891639410                       # Energy for active background per rank (pJ)
system.mem_ctrls_0.preBackEnergy         217266481500                       # Energy for precharge background per rank (pJ)
system.mem_ctrls_0.totalEnergy           327403057155                       # Total energy per rank (pJ)
system.mem_ctrls_0.averagePower            689.958856                       # Core power per rank (mW)
system.mem_ctrls_0.memoryStateTime::IDLE 360569963250                       # Time in different power states
system.mem_ctrls_0.memoryStateTime::REF   15701140000                       # Time in different power states
system.mem_ctrls_0.memoryStateTime::PRE_PDN            0                       # Time in different power states
system.mem_ctrls_0.memoryStateTime::ACT   93932748000                       # Time in different power states
system.mem_ctrls_0.memoryStateTime::ACT_PDN            0                       # Time in different power states
system.mem_ctrls_1.actEnergy                566228880                       # Energy for activate commands per rank (pJ)
system.mem_ctrls_1.preEnergy                308954250                       # Energy for precharge commands per rank (pJ)
system.mem_ctrls_1.readEnergy               566490600                       # Energy for read commands per rank (pJ)
system.mem_ctrls_1.writeEnergy              524964240                       # Energy for write commands per rank (pJ)
system.mem_ctrls_1.refreshEnergy          30993680640                       # Energy for refresh commands per rank (pJ)
system.mem_ctrls_1.actBackEnergy          63694807605                       # Energy for active background per rank (pJ)
system.mem_ctrls_1.preBackEnergy         228842649750                       # Energy for precharge background per rank (pJ)
system.mem_ctrls_1.totalEnergy           325497775965                       # Total energy per rank (pJ)
system.mem_ctrls_1.averagePower            685.943726                       # Core power per rank (mW)
system.mem_ctrls_1.memoryStateTime::IDLE 379846303000                       # Time in different power states
system.mem_ctrls_1.memoryStateTime::REF   15701140000                       # Time in different power states
system.mem_ctrls_1.memoryStateTime::PRE_PDN            0                       # Time in different power states
system.mem_ctrls_1.memoryStateTime::ACT   74656408250                       # Time in different power states
system.mem_ctrls_1.memoryStateTime::ACT_PDN            0                       # Time in different power states
system.cpu_voltage_domain.voltage                   1                       # Voltage in Volts
system.cpu_clk_domain.clock                       500                       # Clock period in ticks
system.cpu0.apic_clk_domain.clock                8000                       # Clock period in ticks
system.cpu0.numCycles                       944731532                       # number of cpu cycles simulated
system.cpu0.numWorkItemsStarted                     0                       # number of work items this cpu started
system.cpu0.numWorkItemsCompleted                   0                       # number of work items this cpu completed
system.cpu0.kern.inst.arm                           0                       # number of arm instructions executed
system.cpu0.kern.inst.quiesce                       0                       # number of quiesce instructions executed
system.cpu0.committedInsts                     407903                       # Number of instructions committed
system.cpu0.committedOps                       859502                       # Number of ops (including micro ops) committed
system.cpu0.num_int_alu_accesses               844232                       # Number of integer alu accesses
system.cpu0.num_fp_alu_accesses                   387                       # Number of float alu accesses
system.cpu0.num_func_calls                      25295                       # number of times a function call or return occured
system.cpu0.num_conditional_control_insts        56440                       # number of instructions that are conditional controls
system.cpu0.num_int_insts                      844232                       # number of integer instructions
system.cpu0.num_fp_insts                          387                       # number of float instructions
system.cpu0.num_int_register_reads            1709071                       # number of times the integer registers were read
system.cpu0.num_int_register_writes            688899                       # number of times the integer registers were written
system.cpu0.num_fp_register_reads                 622                       # number of times the floating registers were read
system.cpu0.num_fp_register_writes                354                       # number of times the floating registers were written
system.cpu0.num_cc_register_reads              453318                       # number of times the CC registers were read
system.cpu0.num_cc_register_writes             262767                       # number of times the CC registers were written
system.cpu0.num_mem_refs                       206089                       # number of memory refs
system.cpu0.num_load_insts                     125676                       # Number of load instructions
system.cpu0.num_store_insts                     80413                       # Number of store instructions
system.cpu0.num_idle_cycles              941486873.762403                       # Number of idle cycles
system.cpu0.num_busy_cycles              3244658.237597                       # Number of busy cycles
system.cpu0.not_idle_fraction                0.003434                       # Percentage of non-idle cycles
system.cpu0.idle_fraction                    0.996566                       # Percentage of idle cycles
system.cpu0.Branches                            89370                       # Number of branches fetched
system.cpu0.op_class::No_OpClass                 9918      1.15%      1.15% # Class of executed instruction
system.cpu0.op_class::IntAlu                   639007     74.34%     75.50% # Class of executed instruction
system.cpu0.op_class::IntMult                    1710      0.20%     75.70% # Class of executed instruction
system.cpu0.op_class::IntDiv                     2562      0.30%     76.00% # Class of executed instruction
system.cpu0.op_class::FloatAdd                    239      0.03%     76.02% # Class of executed instruction
system.cpu0.op_class::FloatCmp                      0      0.00%     76.02% # Class of executed instruction
system.cpu0.op_class::FloatCvt                      0      0.00%     76.02% # Class of executed instruction
system.cpu0.op_class::FloatMult                     0      0.00%     76.02% # Class of executed instruction
system.cpu0.op_class::FloatDiv                      0      0.00%     76.02% # Class of executed instruction
system.cpu0.op_class::FloatSqrt                     0      0.00%     76.02% # Class of executed instruction
system.cpu0.op_class::SimdAdd                       0      0.00%     76.02% # Class of executed instruction
system.cpu0.op_class::SimdAddAcc                    0      0.00%     76.02% # Class of executed instruction
system.cpu0.op_class::SimdAlu                       0      0.00%     76.02% # Class of executed instruction
system.cpu0.op_class::SimdCmp                       0      0.00%     76.02% # Class of executed instruction
system.cpu0.op_class::SimdCvt                       0      0.00%     76.02% # Class of executed instruction
system.cpu0.op_class::SimdMisc                      0      0.00%     76.02% # Class of executed instruction
system.cpu0.op_class::SimdMult                      0      0.00%     76.02% # Class of executed instruction
system.cpu0.op_class::SimdMultAcc                   0      0.00%     76.02% # Class of executed instruction
system.cpu0.op_class::SimdShift                     0      0.00%     76.02% # Class of executed instruction
system.cpu0.op_class::SimdShiftAcc                  0      0.00%     76.02% # Class of executed instruction
system.cpu0.op_class::SimdSqrt                      0      0.00%     76.02% # Class of executed instruction
system.cpu0.op_class::SimdFloatAdd                  0      0.00%     76.02% # Class of executed instruction
system.cpu0.op_class::SimdFloatAlu                  0      0.00%     76.02% # Class of executed instruction
system.cpu0.op_class::SimdFloatCmp                  0      0.00%     76.02% # Class of executed instruction
system.cpu0.op_class::SimdFloatCvt                  0      0.00%     76.02% # Class of executed instruction
system.cpu0.op_class::SimdFloatDiv                  0      0.00%     76.02% # Class of executed instruction
system.cpu0.op_class::SimdFloatMisc                 0      0.00%     76.02% # Class of executed instruction
system.cpu0.op_class::SimdFloatMult                 0      0.00%     76.02% # Class of executed instruction
system.cpu0.op_class::SimdFloatMultAcc              0      0.00%     76.02% # Class of executed instruction
system.cpu0.op_class::SimdFloatSqrt                 0      0.00%     76.02% # Class of executed instruction
system.cpu0.op_class::MemRead                  125676     14.62%     90.64% # Class of executed instruction
system.cpu0.op_class::MemWrite                  80413      9.36%    100.00% # Class of executed instruction
system.cpu0.op_class::IprAccess                     0      0.00%    100.00% # Class of executed instruction
system.cpu0.op_class::InstPrefetch                  0      0.00%    100.00% # Class of executed instruction
system.cpu0.op_class::total                    859525                       # Class of executed instruction
system.cpu1.apic_clk_domain.clock                8000                       # Clock period in ticks
system.cpu1.numCycles                       941434295                       # number of cpu cycles simulated
system.cpu1.numWorkItemsStarted                     0                       # number of work items this cpu started
system.cpu1.numWorkItemsCompleted                   0                       # number of work items this cpu completed
system.cpu1.kern.inst.arm                           0                       # number of arm instructions executed
system.cpu1.kern.inst.quiesce                       0                       # number of quiesce instructions executed
system.cpu1.committedInsts                  265736762                       # Number of instructions committed
system.cpu1.committedOps                    479170586                       # Number of ops (including micro ops) committed
system.cpu1.num_int_alu_accesses            269542038                       # Number of integer alu accesses
system.cpu1.num_fp_alu_accesses             270602519                       # Number of float alu accesses
system.cpu1.num_func_calls                    9864222                       # number of times a function call or return occured
system.cpu1.num_conditional_control_insts     14998053                       # number of instructions that are conditional controls
system.cpu1.num_int_insts                   269542038                       # number of integer instructions
system.cpu1.num_fp_insts                    270602519                       # number of float instructions
system.cpu1.num_int_register_reads          512488550                       # number of times the integer registers were read
system.cpu1.num_int_register_writes         176047536                       # number of times the integer registers were written
system.cpu1.num_fp_register_reads           446698678                       # number of times the floating registers were read
system.cpu1.num_fp_register_writes          249457043                       # number of times the floating registers were written
system.cpu1.num_cc_register_reads           106895812                       # number of times the CC registers were read
system.cpu1.num_cc_register_writes           82964593                       # number of times the CC registers were written
system.cpu1.num_mem_refs                     84020212                       # number of memory refs
system.cpu1.num_load_insts                   62865985                       # Number of load instructions
system.cpu1.num_store_insts                  21154227                       # Number of store instructions
system.cpu1.num_idle_cycles              5300394.729513                       # Number of idle cycles
system.cpu1.num_busy_cycles              936133900.270487                       # Number of busy cycles
system.cpu1.not_idle_fraction                0.994370                       # Percentage of non-idle cycles
system.cpu1.idle_fraction                    0.005630                       # Percentage of idle cycles
system.cpu1.Branches                         27045518                       # Number of branches fetched
system.cpu1.op_class::No_OpClass                10616      0.00%      0.00% # Class of executed instruction
system.cpu1.op_class::IntAlu                244767799     51.08%     51.08% # Class of executed instruction
system.cpu1.op_class::IntMult                    2398      0.00%     51.08% # Class of executed instruction
system.cpu1.op_class::IntDiv                     1737      0.00%     51.08% # Class of executed instruction
system.cpu1.op_class::FloatAdd              150367922     31.38%     82.47% # Class of executed instruction
system.cpu1.op_class::FloatCmp                      0      0.00%     82.47% # Class of executed instruction
system.cpu1.op_class::FloatCvt                      0      0.00%     82.47% # Class of executed instruction
system.cpu1.op_class::FloatMult                     0      0.00%     82.47% # Class of executed instruction
system.cpu1.op_class::FloatDiv                      0      0.00%     82.47% # Class of executed instruction
system.cpu1.op_class::FloatSqrt                     0      0.00%     82.47% # Class of executed instruction
system.cpu1.op_class::SimdAdd                       0      0.00%     82.47% # Class of executed instruction
system.cpu1.op_class::SimdAddAcc                    0      0.00%     82.47% # Class of executed instruction
system.cpu1.op_class::SimdAlu                       0      0.00%     82.47% # Class of executed instruction
system.cpu1.op_class::SimdCmp                       0      0.00%     82.47% # Class of executed instruction
system.cpu1.op_class::SimdCvt                       0      0.00%     82.47% # Class of executed instruction
system.cpu1.op_class::SimdMisc                      0      0.00%     82.47% # Class of executed instruction
system.cpu1.op_class::SimdMult                      0      0.00%     82.47% # Class of executed instruction
system.cpu1.op_class::SimdMultAcc                   0      0.00%     82.47% # Class of executed instruction
system.cpu1.op_class::SimdShift                     0      0.00%     82.47% # Class of executed instruction
system.cpu1.op_class::SimdShiftAcc                  0      0.00%     82.47% # Class of executed instruction
system.cpu1.op_class::SimdSqrt                      0      0.00%     82.47% # Class of executed instruction
system.cpu1.op_class::SimdFloatAdd                  0      0.00%     82.47% # Class of executed instruction
system.cpu1.op_class::SimdFloatAlu                  0      0.00%     82.47% # Class of executed instruction
system.cpu1.op_class::SimdFloatCmp                  0      0.00%     82.47% # Class of executed instruction
system.cpu1.op_class::SimdFloatCvt                  0      0.00%     82.47% # Class of executed instruction
system.cpu1.op_class::SimdFloatDiv                  0      0.00%     82.47% # Class of executed instruction
system.cpu1.op_class::SimdFloatMisc                 0      0.00%     82.47% # Class of executed instruction
system.cpu1.op_class::SimdFloatMult                 0      0.00%     82.47% # Class of executed instruction
system.cpu1.op_class::SimdFloatMultAcc              0      0.00%     82.47% # Class of executed instruction
system.cpu1.op_class::SimdFloatSqrt                 0      0.00%     82.47% # Class of executed instruction
system.cpu1.op_class::MemRead                62865985     13.12%     95.59% # Class of executed instruction
system.cpu1.op_class::MemWrite               21154227      4.41%    100.00% # Class of executed instruction
system.cpu1.op_class::IprAccess                     0      0.00%    100.00% # Class of executed instruction
system.cpu1.op_class::InstPrefetch                  0      0.00%    100.00% # Class of executed instruction
system.cpu1.op_class::total                 479170684                       # Class of executed instruction
system.cpu2.apic_clk_domain.clock                8000                       # Clock period in ticks
system.cpu2.numCycles                       938208403                       # number of cpu cycles simulated
system.cpu2.numWorkItemsStarted                     0                       # number of work items this cpu started
system.cpu2.numWorkItemsCompleted                   0                       # number of work items this cpu completed
system.cpu2.kern.inst.arm                           0                       # number of arm instructions executed
system.cpu2.kern.inst.quiesce                       0                       # number of quiesce instructions executed
system.cpu2.committedInsts                     373784                       # Number of instructions committed
system.cpu2.committedOps                       792230                       # Number of ops (including micro ops) committed
system.cpu2.num_int_alu_accesses               776933                       # Number of integer alu accesses
system.cpu2.num_fp_alu_accesses                    33                       # Number of float alu accesses
system.cpu2.num_func_calls                      21889                       # number of times a function call or return occured
system.cpu2.num_conditional_control_insts        57083                       # number of instructions that are conditional controls
system.cpu2.num_int_insts                      776933                       # number of integer instructions
system.cpu2.num_fp_insts                           33                       # number of float instructions
system.cpu2.num_int_register_reads            1567312                       # number of times the integer registers were read
system.cpu2.num_int_register_writes            639036                       # number of times the integer registers were written
system.cpu2.num_fp_register_reads                  14                       # number of times the floating registers were read
system.cpu2.num_fp_register_writes                 25                       # number of times the floating registers were written
system.cpu2.num_cc_register_reads              442633                       # number of times the CC registers were read
system.cpu2.num_cc_register_writes             238040                       # number of times the CC registers were written
system.cpu2.num_mem_refs                       186782                       # number of memory refs
system.cpu2.num_load_insts                     115594                       # Number of load instructions
system.cpu2.num_store_insts                     71188                       # Number of store instructions
system.cpu2.num_idle_cycles              934962549.606017                       # Number of idle cycles
system.cpu2.num_busy_cycles              3245853.393983                       # Number of busy cycles
system.cpu2.not_idle_fraction                0.003460                       # Percentage of non-idle cycles
system.cpu2.idle_fraction                    0.996540                       # Percentage of idle cycles
system.cpu2.Branches                            85952                       # Number of branches fetched
system.cpu2.op_class::No_OpClass                11881      1.50%      1.50% # Class of executed instruction
system.cpu2.op_class::IntAlu                   587892     74.21%     75.71% # Class of executed instruction
system.cpu2.op_class::IntMult                    1600      0.20%     75.91% # Class of executed instruction
system.cpu2.op_class::IntDiv                     4062      0.51%     76.42% # Class of executed instruction
system.cpu2.op_class::FloatAdd                     17      0.00%     76.42% # Class of executed instruction
system.cpu2.op_class::FloatCmp                      0      0.00%     76.42% # Class of executed instruction
system.cpu2.op_class::FloatCvt                      0      0.00%     76.42% # Class of executed instruction
system.cpu2.op_class::FloatMult                     0      0.00%     76.42% # Class of executed instruction
system.cpu2.op_class::FloatDiv                      0      0.00%     76.42% # Class of executed instruction
system.cpu2.op_class::FloatSqrt                     0      0.00%     76.42% # Class of executed instruction
system.cpu2.op_class::SimdAdd                       0      0.00%     76.42% # Class of executed instruction
system.cpu2.op_class::SimdAddAcc                    0      0.00%     76.42% # Class of executed instruction
system.cpu2.op_class::SimdAlu                       0      0.00%     76.42% # Class of executed instruction
system.cpu2.op_class::SimdCmp                       0      0.00%     76.42% # Class of executed instruction
system.cpu2.op_class::SimdCvt                       0      0.00%     76.42% # Class of executed instruction
system.cpu2.op_class::SimdMisc                      0      0.00%     76.42% # Class of executed instruction
system.cpu2.op_class::SimdMult                      0      0.00%     76.42% # Class of executed instruction
system.cpu2.op_class::SimdMultAcc                   0      0.00%     76.42% # Class of executed instruction
system.cpu2.op_class::SimdShift                     0      0.00%     76.42% # Class of executed instruction
system.cpu2.op_class::SimdShiftAcc                  0      0.00%     76.42% # Class of executed instruction
system.cpu2.op_class::SimdSqrt                      0      0.00%     76.42% # Class of executed instruction
system.cpu2.op_class::SimdFloatAdd                  0      0.00%     76.42% # Class of executed instruction
system.cpu2.op_class::SimdFloatAlu                  0      0.00%     76.42% # Class of executed instruction
system.cpu2.op_class::SimdFloatCmp                  0      0.00%     76.42% # Class of executed instruction
system.cpu2.op_class::SimdFloatCvt                  0      0.00%     76.42% # Class of executed instruction
system.cpu2.op_class::SimdFloatDiv                  0      0.00%     76.42% # Class of executed instruction
system.cpu2.op_class::SimdFloatMisc                 0      0.00%     76.42% # Class of executed instruction
system.cpu2.op_class::SimdFloatMult                 0      0.00%     76.42% # Class of executed instruction
system.cpu2.op_class::SimdFloatMultAcc              0      0.00%     76.42% # Class of executed instruction
system.cpu2.op_class::SimdFloatSqrt                 0      0.00%     76.42% # Class of executed instruction
system.cpu2.op_class::MemRead                  115594     14.59%     91.01% # Class of executed instruction
system.cpu2.op_class::MemWrite                  71188      8.99%    100.00% # Class of executed instruction
system.cpu2.op_class::IprAccess                     0      0.00%    100.00% # Class of executed instruction
system.cpu2.op_class::InstPrefetch                  0      0.00%    100.00% # Class of executed instruction
system.cpu2.op_class::total                    792234                       # Class of executed instruction
system.cpu3.apic_clk_domain.clock                8000                       # Clock period in ticks
system.cpu3.numCycles                       938056750                       # number of cpu cycles simulated
system.cpu3.numWorkItemsStarted                     0                       # number of work items this cpu started
system.cpu3.numWorkItemsCompleted                   0                       # number of work items this cpu completed
system.cpu3.kern.inst.arm                           0                       # number of arm instructions executed
system.cpu3.kern.inst.quiesce                       0                       # number of quiesce instructions executed
system.cpu3.committedInsts                    1006349                       # Number of instructions committed
system.cpu3.committedOps                      1951593                       # Number of ops (including micro ops) committed
system.cpu3.num_int_alu_accesses              1921508                       # Number of integer alu accesses
system.cpu3.num_fp_alu_accesses                  1778                       # Number of float alu accesses
system.cpu3.num_func_calls                      41320                       # number of times a function call or return occured
system.cpu3.num_conditional_control_insts       157530                       # number of instructions that are conditional controls
system.cpu3.num_int_insts                     1921508                       # number of integer instructions
system.cpu3.num_fp_insts                         1778                       # number of float instructions
system.cpu3.num_int_register_reads            3913313                       # number of times the integer registers were read
system.cpu3.num_int_register_writes           1565546                       # number of times the integer registers were written
system.cpu3.num_fp_register_reads                2988                       # number of times the floating registers were read
system.cpu3.num_fp_register_writes               1416                       # number of times the floating registers were written
system.cpu3.num_cc_register_reads             1116626                       # number of times the CC registers were read
system.cpu3.num_cc_register_writes             648811                       # number of times the CC registers were written
system.cpu3.num_mem_refs                       447822                       # number of memory refs
system.cpu3.num_load_insts                     276043                       # Number of load instructions
system.cpu3.num_store_insts                    171779                       # Number of store instructions
system.cpu3.num_idle_cycles              930932215.928323                       # Number of idle cycles
system.cpu3.num_busy_cycles              7124534.071677                       # Number of busy cycles
system.cpu3.not_idle_fraction                0.007595                       # Percentage of non-idle cycles
system.cpu3.idle_fraction                    0.992405                       # Percentage of idle cycles
system.cpu3.Branches                           214560                       # Number of branches fetched
system.cpu3.op_class::No_OpClass                20167      1.03%      1.03% # Class of executed instruction
system.cpu3.op_class::IntAlu                  1473991     75.52%     76.56% # Class of executed instruction
system.cpu3.op_class::IntMult                    2385      0.12%     76.68% # Class of executed instruction
system.cpu3.op_class::IntDiv                     5973      0.31%     76.99% # Class of executed instruction
system.cpu3.op_class::FloatAdd                   1344      0.07%     77.05% # Class of executed instruction
system.cpu3.op_class::FloatCmp                      0      0.00%     77.05% # Class of executed instruction
system.cpu3.op_class::FloatCvt                      0      0.00%     77.05% # Class of executed instruction
system.cpu3.op_class::FloatMult                     0      0.00%     77.05% # Class of executed instruction
system.cpu3.op_class::FloatDiv                      0      0.00%     77.05% # Class of executed instruction
system.cpu3.op_class::FloatSqrt                     0      0.00%     77.05% # Class of executed instruction
system.cpu3.op_class::SimdAdd                       0      0.00%     77.05% # Class of executed instruction
system.cpu3.op_class::SimdAddAcc                    0      0.00%     77.05% # Class of executed instruction
system.cpu3.op_class::SimdAlu                       0      0.00%     77.05% # Class of executed instruction
system.cpu3.op_class::SimdCmp                       0      0.00%     77.05% # Class of executed instruction
system.cpu3.op_class::SimdCvt                       0      0.00%     77.05% # Class of executed instruction
system.cpu3.op_class::SimdMisc                      0      0.00%     77.05% # Class of executed instruction
system.cpu3.op_class::SimdMult                      0      0.00%     77.05% # Class of executed instruction
system.cpu3.op_class::SimdMultAcc                   0      0.00%     77.05% # Class of executed instruction
system.cpu3.op_class::SimdShift                     0      0.00%     77.05% # Class of executed instruction
system.cpu3.op_class::SimdShiftAcc                  0      0.00%     77.05% # Class of executed instruction
system.cpu3.op_class::SimdSqrt                      0      0.00%     77.05% # Class of executed instruction
system.cpu3.op_class::SimdFloatAdd                  0      0.00%     77.05% # Class of executed instruction
system.cpu3.op_class::SimdFloatAlu                  0      0.00%     77.05% # Class of executed instruction
system.cpu3.op_class::SimdFloatCmp                  0      0.00%     77.05% # Class of executed instruction
system.cpu3.op_class::SimdFloatCvt                  0      0.00%     77.05% # Class of executed instruction
system.cpu3.op_class::SimdFloatDiv                  0      0.00%     77.05% # Class of executed instruction
system.cpu3.op_class::SimdFloatMisc                 0      0.00%     77.05% # Class of executed instruction
system.cpu3.op_class::SimdFloatMult                 0      0.00%     77.05% # Class of executed instruction
system.cpu3.op_class::SimdFloatMultAcc              0      0.00%     77.05% # Class of executed instruction
system.cpu3.op_class::SimdFloatSqrt                 0      0.00%     77.05% # Class of executed instruction
system.cpu3.op_class::MemRead                  276043     14.14%     91.20% # Class of executed instruction
system.cpu3.op_class::MemWrite                 171779      8.80%    100.00% # Class of executed instruction
system.cpu3.op_class::IprAccess                     0      0.00%    100.00% # Class of executed instruction
system.cpu3.op_class::InstPrefetch                  0      0.00%    100.00% # Class of executed instruction
system.cpu3.op_class::total                   1951682                       # Class of executed instruction
system.iobus.trans_dist::ReadReq                  103                       # Transaction distribution
system.iobus.trans_dist::ReadResp                 103                       # Transaction distribution
system.iobus.trans_dist::WriteReq                 577                       # Transaction distribution
system.iobus.trans_dist::WriteResp                577                       # Transaction distribution
system.iobus.trans_dist::MessageReq                19                       # Transaction distribution
system.iobus.trans_dist::MessageResp               19                       # Transaction distribution
system.iobus.pkt_count_system.pc.south_bridge.io_apic.int_master::system.ruby.l1_cntrl0.sequencer.pio-slave-port            4                       # Packet count per connected master and slave (bytes)
system.iobus.pkt_count_system.pc.south_bridge.io_apic.int_master::system.ruby.l1_cntrl1.sequencer.pio-slave-port            4                       # Packet count per connected master and slave (bytes)
system.iobus.pkt_count_system.pc.south_bridge.io_apic.int_master::system.ruby.l1_cntrl2.sequencer.pio-slave-port            4                       # Packet count per connected master and slave (bytes)
system.iobus.pkt_count_system.pc.south_bridge.io_apic.int_master::system.ruby.l1_cntrl3.sequencer.pio-slave-port            4                       # Packet count per connected master and slave (bytes)
system.iobus.pkt_count_system.pc.south_bridge.io_apic.int_master::total           16                       # Packet count per connected master and slave (bytes)
system.iobus.pkt_count_system.ruby.l1_cntrl0.sequencer.mem-master-port::system.pc.south_bridge.ide.pio           46                       # Packet count per connected master and slave (bytes)
system.iobus.pkt_count_system.ruby.l1_cntrl0.sequencer.mem-master-port::system.pc.south_bridge.io_apic.pio            8                       # Packet count per connected master and slave (bytes)
system.iobus.pkt_count_system.ruby.l1_cntrl0.sequencer.mem-master-port::system.ruby.l1_cntrl0.sequencer.pio-slave-port          252                       # Packet count per connected master and slave (bytes)
system.iobus.pkt_count_system.ruby.l1_cntrl0.sequencer.mem-master-port::system.ruby.l1_cntrl1.sequencer.pio-slave-port            2                       # Packet count per connected master and slave (bytes)
system.iobus.pkt_count_system.ruby.l1_cntrl0.sequencer.mem-master-port::total          308                       # Packet count per connected master and slave (bytes)
system.iobus.pkt_count_system.ruby.l1_cntrl1.sequencer.mem-master-port::system.pc.south_bridge.ide.pio           12                       # Packet count per connected master and slave (bytes)
system.iobus.pkt_count_system.ruby.l1_cntrl1.sequencer.mem-master-port::system.pc.south_bridge.io_apic.pio            6                       # Packet count per connected master and slave (bytes)
system.iobus.pkt_count_system.ruby.l1_cntrl1.sequencer.mem-master-port::system.pc.com_1.pio           22                       # Packet count per connected master and slave (bytes)
system.iobus.pkt_count_system.ruby.l1_cntrl1.sequencer.mem-master-port::system.ruby.l1_cntrl0.sequencer.pio-slave-port            4                       # Packet count per connected master and slave (bytes)
system.iobus.pkt_count_system.ruby.l1_cntrl1.sequencer.mem-master-port::system.ruby.l1_cntrl1.sequencer.pio-slave-port          272                       # Packet count per connected master and slave (bytes)
system.iobus.pkt_count_system.ruby.l1_cntrl1.sequencer.mem-master-port::system.ruby.l1_cntrl2.sequencer.pio-slave-port            8                       # Packet count per connected master and slave (bytes)
system.iobus.pkt_count_system.ruby.l1_cntrl1.sequencer.mem-master-port::total          324                       # Packet count per connected master and slave (bytes)
system.iobus.pkt_count_system.ruby.l1_cntrl2.sequencer.mem-master-port::system.pc.south_bridge.ide.pio           34                       # Packet count per connected master and slave (bytes)
system.iobus.pkt_count_system.ruby.l1_cntrl2.sequencer.mem-master-port::system.pc.south_bridge.io_apic.pio           14                       # Packet count per connected master and slave (bytes)
system.iobus.pkt_count_system.ruby.l1_cntrl2.sequencer.mem-master-port::system.pc.com_1.pio          162                       # Packet count per connected master and slave (bytes)
system.iobus.pkt_count_system.ruby.l1_cntrl2.sequencer.mem-master-port::system.ruby.l1_cntrl2.sequencer.pio-slave-port          256                       # Packet count per connected master and slave (bytes)
system.iobus.pkt_count_system.ruby.l1_cntrl2.sequencer.mem-master-port::system.ruby.l1_cntrl3.sequencer.pio-slave-port            2                       # Packet count per connected master and slave (bytes)
system.iobus.pkt_count_system.ruby.l1_cntrl2.sequencer.mem-master-port::total          468                       # Packet count per connected master and slave (bytes)
system.iobus.pkt_count_system.ruby.l1_cntrl3.sequencer.mem-master-port::system.pc.south_bridge.io_apic.pio           16                       # Packet count per connected master and slave (bytes)
system.iobus.pkt_count_system.ruby.l1_cntrl3.sequencer.mem-master-port::system.ruby.l1_cntrl0.sequencer.pio-slave-port            2                       # Packet count per connected master and slave (bytes)
system.iobus.pkt_count_system.ruby.l1_cntrl3.sequencer.mem-master-port::system.ruby.l1_cntrl1.sequencer.pio-slave-port            2                       # Packet count per connected master and slave (bytes)
system.iobus.pkt_count_system.ruby.l1_cntrl3.sequencer.mem-master-port::system.ruby.l1_cntrl2.sequencer.pio-slave-port            2                       # Packet count per connected master and slave (bytes)
system.iobus.pkt_count_system.ruby.l1_cntrl3.sequencer.mem-master-port::system.ruby.l1_cntrl3.sequencer.pio-slave-port          260                       # Packet count per connected master and slave (bytes)
system.iobus.pkt_count_system.ruby.l1_cntrl3.sequencer.mem-master-port::total          282                       # Packet count per connected master and slave (bytes)
system.iobus.pkt_count::total                    1398                       # Packet count per connected master and slave (bytes)
system.iobus.pkt_size_system.pc.south_bridge.io_apic.int_master::system.ruby.l1_cntrl0.sequencer.pio-slave-port            8                       # Cumulative packet size per connected master and slave (bytes)
system.iobus.pkt_size_system.pc.south_bridge.io_apic.int_master::system.ruby.l1_cntrl1.sequencer.pio-slave-port            8                       # Cumulative packet size per connected master and slave (bytes)
system.iobus.pkt_size_system.pc.south_bridge.io_apic.int_master::system.ruby.l1_cntrl2.sequencer.pio-slave-port            8                       # Cumulative packet size per connected master and slave (bytes)
system.iobus.pkt_size_system.pc.south_bridge.io_apic.int_master::system.ruby.l1_cntrl3.sequencer.pio-slave-port            8                       # Cumulative packet size per connected master and slave (bytes)
system.iobus.pkt_size_system.pc.south_bridge.io_apic.int_master::total           32                       # Cumulative packet size per connected master and slave (bytes)
system.iobus.pkt_size_system.ruby.l1_cntrl0.sequencer.mem-master-port::system.pc.south_bridge.ide.pio           26                       # Cumulative packet size per connected master and slave (bytes)
system.iobus.pkt_size_system.ruby.l1_cntrl0.sequencer.mem-master-port::system.pc.south_bridge.io_apic.pio           16                       # Cumulative packet size per connected master and slave (bytes)
system.iobus.pkt_size_system.ruby.l1_cntrl0.sequencer.mem-master-port::system.ruby.l1_cntrl0.sequencer.pio-slave-port          504                       # Cumulative packet size per connected master and slave (bytes)
system.iobus.pkt_size_system.ruby.l1_cntrl0.sequencer.mem-master-port::system.ruby.l1_cntrl1.sequencer.pio-slave-port            4                       # Cumulative packet size per connected master and slave (bytes)
system.iobus.pkt_size_system.ruby.l1_cntrl0.sequencer.mem-master-port::total          550                       # Cumulative packet size per connected master and slave (bytes)
system.iobus.pkt_size_system.ruby.l1_cntrl1.sequencer.mem-master-port::system.pc.south_bridge.ide.pio            6                       # Cumulative packet size per connected master and slave (bytes)
system.iobus.pkt_size_system.ruby.l1_cntrl1.sequencer.mem-master-port::system.pc.south_bridge.io_apic.pio           12                       # Cumulative packet size per connected master and slave (bytes)
system.iobus.pkt_size_system.ruby.l1_cntrl1.sequencer.mem-master-port::system.pc.com_1.pio           11                       # Cumulative packet size per connected master and slave (bytes)
system.iobus.pkt_size_system.ruby.l1_cntrl1.sequencer.mem-master-port::system.ruby.l1_cntrl0.sequencer.pio-slave-port            8                       # Cumulative packet size per connected master and slave (bytes)
system.iobus.pkt_size_system.ruby.l1_cntrl1.sequencer.mem-master-port::system.ruby.l1_cntrl1.sequencer.pio-slave-port          544                       # Cumulative packet size per connected master and slave (bytes)
system.iobus.pkt_size_system.ruby.l1_cntrl1.sequencer.mem-master-port::system.ruby.l1_cntrl2.sequencer.pio-slave-port           16                       # Cumulative packet size per connected master and slave (bytes)
system.iobus.pkt_size_system.ruby.l1_cntrl1.sequencer.mem-master-port::total          597                       # Cumulative packet size per connected master and slave (bytes)
system.iobus.pkt_size_system.ruby.l1_cntrl2.sequencer.mem-master-port::system.pc.south_bridge.ide.pio           20                       # Cumulative packet size per connected master and slave (bytes)
system.iobus.pkt_size_system.ruby.l1_cntrl2.sequencer.mem-master-port::system.pc.south_bridge.io_apic.pio           28                       # Cumulative packet size per connected master and slave (bytes)
system.iobus.pkt_size_system.ruby.l1_cntrl2.sequencer.mem-master-port::system.pc.com_1.pio           81                       # Cumulative packet size per connected master and slave (bytes)
system.iobus.pkt_size_system.ruby.l1_cntrl2.sequencer.mem-master-port::system.ruby.l1_cntrl2.sequencer.pio-slave-port          512                       # Cumulative packet size per connected master and slave (bytes)
system.iobus.pkt_size_system.ruby.l1_cntrl2.sequencer.mem-master-port::system.ruby.l1_cntrl3.sequencer.pio-slave-port            4                       # Cumulative packet size per connected master and slave (bytes)
system.iobus.pkt_size_system.ruby.l1_cntrl2.sequencer.mem-master-port::total          645                       # Cumulative packet size per connected master and slave (bytes)
system.iobus.pkt_size_system.ruby.l1_cntrl3.sequencer.mem-master-port::system.pc.south_bridge.io_apic.pio           32                       # Cumulative packet size per connected master and slave (bytes)
system.iobus.pkt_size_system.ruby.l1_cntrl3.sequencer.mem-master-port::system.ruby.l1_cntrl0.sequencer.pio-slave-port            4                       # Cumulative packet size per connected master and slave (bytes)
system.iobus.pkt_size_system.ruby.l1_cntrl3.sequencer.mem-master-port::system.ruby.l1_cntrl1.sequencer.pio-slave-port            4                       # Cumulative packet size per connected master and slave (bytes)
system.iobus.pkt_size_system.ruby.l1_cntrl3.sequencer.mem-master-port::system.ruby.l1_cntrl2.sequencer.pio-slave-port            4                       # Cumulative packet size per connected master and slave (bytes)
system.iobus.pkt_size_system.ruby.l1_cntrl3.sequencer.mem-master-port::system.ruby.l1_cntrl3.sequencer.pio-slave-port          520                       # Cumulative packet size per connected master and slave (bytes)
system.iobus.pkt_size_system.ruby.l1_cntrl3.sequencer.mem-master-port::total          564                       # Cumulative packet size per connected master and slave (bytes)
system.iobus.pkt_size::total                     2388                       # Cumulative packet size per connected master and slave (bytes)
system.iobus.reqLayer2.occupancy                84000                       # Layer occupancy (ticks)
system.iobus.reqLayer2.utilization                0.0                       # Layer utilization (%)
system.iobus.reqLayer8.occupancy                37496                       # Layer occupancy (ticks)
system.iobus.reqLayer8.utilization                0.0                       # Layer utilization (%)
system.iobus.reqLayer12.occupancy              121500                       # Layer occupancy (ticks)
system.iobus.reqLayer12.utilization               0.0                       # Layer utilization (%)
system.iobus.reqLayer17.occupancy              314999                       # Layer occupancy (ticks)
system.iobus.reqLayer17.utilization               0.0                       # Layer utilization (%)
system.iobus.reqLayer18.occupancy              311995                       # Layer occupancy (ticks)
system.iobus.reqLayer18.utilization               0.0                       # Layer utilization (%)
system.iobus.reqLayer19.occupancy              286998                       # Layer occupancy (ticks)
system.iobus.reqLayer19.utilization               0.0                       # Layer utilization (%)
system.iobus.reqLayer20.occupancy              321998                       # Layer occupancy (ticks)
system.iobus.reqLayer20.utilization               0.0                       # Layer utilization (%)
system.iobus.respLayer0.occupancy               11498                       # Layer occupancy (ticks)
system.iobus.respLayer0.utilization               0.0                       # Layer utilization (%)
system.iobus.respLayer2.occupancy              228000                       # Layer occupancy (ticks)
system.iobus.respLayer2.utilization               0.0                       # Layer utilization (%)
system.iobus.respLayer4.occupancy              249500                       # Layer occupancy (ticks)
system.iobus.respLayer4.utilization               0.0                       # Layer utilization (%)
system.iobus.respLayer6.occupancy              365000                       # Layer occupancy (ticks)
system.iobus.respLayer6.utilization               0.0                       # Layer utilization (%)
system.iobus.respLayer8.occupancy              213000                       # Layer occupancy (ticks)
system.iobus.respLayer8.utilization               0.0                       # Layer utilization (%)
system.pc.south_bridge.ide.disks.dma_read_full_pages            0                       # Number of full page size DMA reads (not PRD).
system.pc.south_bridge.ide.disks.dma_read_bytes            0                       # Number of bytes transfered via DMA reads (not PRD).
system.pc.south_bridge.ide.disks.dma_read_txs            0                       # Number of DMA read transactions (not PRD).
system.pc.south_bridge.ide.disks.dma_write_full_pages           33                       # Number of full page size DMA writes.
system.pc.south_bridge.ide.disks.dma_write_bytes       135168                       # Number of bytes transfered via DMA writes.
system.pc.south_bridge.ide.disks.dma_write_txs           33                       # Number of DMA write transactions.
system.ruby.clk_domain.clock                      500                       # Clock period in ticks
system.ruby.delayHist::bucket_size                  2                       # delay histogram for all message
system.ruby.delayHist::max_bucket                  19                       # delay histogram for all message
system.ruby.delayHist::samples                 579109                       # delay histogram for all message
system.ruby.delayHist::mean                  0.009977                       # delay histogram for all message
system.ruby.delayHist::stdev                 0.276282                       # delay histogram for all message
system.ruby.delayHist                    |      578236     99.85%     99.85% |         103      0.02%     99.87% |         113      0.02%     99.89% |         172      0.03%     99.92% |         452      0.08%     99.99% |           4      0.00%     99.99% |           6      0.00%    100.00% |           9      0.00%    100.00% |          10      0.00%    100.00% |           4      0.00%    100.00% # delay histogram for all message
[...]
system.ruby.LD.L1Cache.miss_type_mach_latency_hist_seqr::total        51266                      
system.ruby.LD.Directory.miss_type_mach_latency_hist_seqr::bucket_size          256                      
system.ruby.LD.Directory.miss_type_mach_latency_hist_seqr::max_bucket         2559                      
system.ruby.LD.Directory.miss_type_mach_latency_hist_seqr::samples       328150                      
system.ruby.LD.Directory.miss_type_mach_latency_hist_seqr::mean   113.820814                      
system.ruby.LD.Directory.miss_type_mach_latency_hist_seqr::gmean    95.782138                      
system.ruby.LD.Directory.miss_type_mach_latency_hist_seqr::stdev    77.324544                      
system.ruby.LD.Directory.miss_type_mach_latency_hist_seqr |      310882     94.74%     94.74% |       14874      4.53%     99.27% |        2259      0.69%     99.96% |         122      0.04%    100.00% |          11      0.00%    100.00% |           2      0.00%    100.00% |           0      0.00%    100.00% |           0      0.00%    100.00% |           0      0.00%    100.00% |           0      0.00%    100.00%
system.ruby.LD.Directory.miss_type_mach_latency_hist_seqr::total       328150                      
system.ruby.ST.L1Cache.miss_type_mach_latency_hist_seqr::bucket_size            8                      
system.ruby.ST.L1Cache.miss_type_mach_latency_hist_seqr::max_bucket           79                      
system.ruby.ST.L1Cache.miss_type_mach_latency_hist_seqr::samples         4717                      
system.ruby.ST.L1Cache.miss_type_mach_latency_hist_seqr::mean    48.158363                      
system.ruby.ST.L1Cache.miss_type_mach_latency_hist_seqr::gmean    48.128633                      
system.ruby.ST.L1Cache.miss_type_mach_latency_hist_seqr::stdev     1.667347                      
system.ruby.ST.L1Cache.miss_type_mach_latency_hist_seqr |           0      0.00%      0.00% |           0      0.00%      0.00% |           0      0.00%      0.00% |           0      0.00%      0.00% |           0      0.00%      0.00% |        1018     21.58%     21.58% |        3699     78.42%    100.00% |           0      0.00%    100.00% |           0      0.00%    100.00% |           0      0.00%    100.00%
system.ruby.ST.L1Cache.miss_type_mach_latency_hist_seqr::total         4717                      
system.ruby.ST.Directory.miss_type_mach_latency_hist_seqr::bucket_size          128                      
system.ruby.ST.Directory.miss_type_mach_latency_hist_seqr::max_bucket         1279                      
system.ruby.ST.Directory.miss_type_mach_latency_hist_seqr::samples        72114                      
system.ruby.ST.Directory.miss_type_mach_latency_hist_seqr::mean   124.478340                      
system.ruby.ST.Directory.miss_type_mach_latency_hist_seqr::gmean   108.157059                      
system.ruby.ST.Directory.miss_type_mach_latency_hist_seqr::stdev    86.195067                      
system.ruby.ST.Directory.miss_type_mach_latency_hist_seqr |       61009     84.60%     84.60% |        6269      8.69%     93.29% |        2741      3.80%     97.09% |        1240      1.72%     98.81% |         655      0.91%     99.72% |         164      0.23%     99.95% |          14      0.02%     99.97% |          18      0.02%     99.99% |           2      0.00%    100.00% |           2      0.00%    100.00%
system.ruby.ST.Directory.miss_type_mach_latency_hist_seqr::total        72114                      
system.ruby.IFETCH.L1Cache.miss_type_mach_latency_hist_seqr::bucket_size           16                      
system.ruby.IFETCH.L1Cache.miss_type_mach_latency_hist_seqr::max_bucket          159                      
system.ruby.IFETCH.L1Cache.miss_type_mach_latency_hist_seqr::samples       226357                      
system.ruby.IFETCH.L1Cache.miss_type_mach_latency_hist_seqr::mean    45.763051                      
system.ruby.IFETCH.L1Cache.miss_type_mach_latency_hist_seqr::gmean    45.733249                      
system.ruby.IFETCH.L1Cache.miss_type_mach_latency_hist_seqr::stdev     1.702588                      
system.ruby.IFETCH.L1Cache.miss_type_mach_latency_hist_seqr |           0      0.00%      0.00% |           0      0.00%      0.00% |      186445     82.37%     82.37% |       39906     17.63%    100.00% |           2      0.00%    100.00% |           2      0.00%    100.00% |           0      0.00%    100.00% |           2      0.00%    100.00% |           0      0.00%    100.00% |           0      0.00%    100.00%
system.ruby.IFETCH.L1Cache.miss_type_mach_latency_hist_seqr::total       226357                      
system.ruby.IFETCH.Directory.miss_type_mach_latency_hist_seqr::bucket_size          128                      
system.ruby.IFETCH.Directory.miss_type_mach_latency_hist_seqr::max_bucket         1279                      
system.ruby.IFETCH.Directory.miss_type_mach_latency_hist_seqr::samples       111485                      
system.ruby.IFETCH.Directory.miss_type_mach_latency_hist_seqr::mean   106.164255                      
system.ruby.IFETCH.Directory.miss_type_mach_latency_hist_seqr::gmean    88.183867                      
system.ruby.IFETCH.Directory.miss_type_mach_latency_hist_seqr::stdev    79.370814                      
system.ruby.IFETCH.Directory.miss_type_mach_latency_hist_seqr |       90918     81.55%     81.55% |       15196     13.63%     95.18% |        3482      3.12%     98.31% |        1040      0.93%     99.24% |         600      0.54%     99.78% |         203      0.18%     99.96% |          20      0.02%     99.98% |          20      0.02%     99.99% |           6      0.01%    100.00% |           0      0.00%    100.00%
system.ruby.IFETCH.Directory.miss_type_mach_latency_hist_seqr::total       111485                      
system.ruby.RMW_Read.L1Cache.miss_type_mach_latency_hist_seqr::bucket_size            8                      
system.ruby.RMW_Read.L1Cache.miss_type_mach_latency_hist_seqr::max_bucket           79                      
system.ruby.RMW_Read.L1Cache.miss_type_mach_latency_hist_seqr::samples          505                      
system.ruby.RMW_Read.L1Cache.miss_type_mach_latency_hist_seqr::mean    45.813861                      
system.ruby.RMW_Read.L1Cache.miss_type_mach_latency_hist_seqr::gmean    45.784606                      
system.ruby.RMW_Read.L1Cache.miss_type_mach_latency_hist_seqr::stdev     1.671720                      
system.ruby.RMW_Read.L1Cache.miss_type_mach_latency_hist_seqr |           0      0.00%      0.00% |           0      0.00%      0.00% |           0      0.00%      0.00% |           0      0.00%      0.00% |           0      0.00%      0.00% |         406     80.40%     80.40% |          99     19.60%    100.00% |           0      0.00%    100.00% |           0      0.00%    100.00% |           0      0.00%    100.00%
system.ruby.RMW_Read.L1Cache.miss_type_mach_latency_hist_seqr::total          505                      
system.ruby.RMW_Read.Directory.miss_type_mach_latency_hist_seqr::bucket_size          128                      
system.ruby.RMW_Read.Directory.miss_type_mach_latency_hist_seqr::max_bucket         1279                      
system.ruby.RMW_Read.Directory.miss_type_mach_latency_hist_seqr::samples         2822                      
system.ruby.RMW_Read.Directory.miss_type_mach_latency_hist_seqr::mean   143.048547                      
system.ruby.RMW_Read.Directory.miss_type_mach_latency_hist_seqr::gmean   130.267588                      
system.ruby.RMW_Read.Directory.miss_type_mach_latency_hist_seqr::stdev    77.020547                      
system.ruby.RMW_Read.Directory.miss_type_mach_latency_hist_seqr |        1687     59.78%     59.78% |         939     33.27%     93.05% |         141      5.00%     98.05% |          22      0.78%     98.83% |          26      0.92%     99.75% |           7      0.25%    100.00% |           0      0.00%    100.00% |           0      0.00%    100.00% |           0      0.00%    100.00% |           0      0.00%    100.00%
system.ruby.RMW_Read.Directory.miss_type_mach_latency_hist_seqr::total         2822                      
system.ruby.Locked_RMW_Read.L1Cache.miss_type_mach_latency_hist_seqr::bucket_size           16                      
system.ruby.Locked_RMW_Read.L1Cache.miss_type_mach_latency_hist_seqr::max_bucket          159                      
system.ruby.Locked_RMW_Read.L1Cache.miss_type_mach_latency_hist_seqr::samples         1498                      
system.ruby.Locked_RMW_Read.L1Cache.miss_type_mach_latency_hist_seqr::mean    46.389186                      
system.ruby.Locked_RMW_Read.L1Cache.miss_type_mach_latency_hist_seqr::gmean    46.312348                      
system.ruby.Locked_RMW_Read.L1Cache.miss_type_mach_latency_hist_seqr::stdev     3.265997                      
system.ruby.Locked_RMW_Read.L1Cache.miss_type_mach_latency_hist_seqr |           0      0.00%      0.00% |           0      0.00%      0.00% |        1023     68.29%     68.29% |         473     31.58%     99.87% |           0      0.00%     99.87% |           0      0.00%     99.87% |           0      0.00%     99.87% |           2      0.13%    100.00% |           0      0.00%    100.00% |           0      0.00%    100.00%
system.ruby.Locked_RMW_Read.L1Cache.miss_type_mach_latency_hist_seqr::total         1498                      
system.ruby.Locked_RMW_Read.Directory.miss_type_mach_latency_hist_seqr::bucket_size          128                      
system.ruby.Locked_RMW_Read.Directory.miss_type_mach_latency_hist_seqr::max_bucket         1279                      
system.ruby.Locked_RMW_Read.Directory.miss_type_mach_latency_hist_seqr::samples         3132                      
system.ruby.Locked_RMW_Read.Directory.miss_type_mach_latency_hist_seqr::mean   144.366858                      
system.ruby.Locked_RMW_Read.Directory.miss_type_mach_latency_hist_seqr::gmean   130.481418                      
system.ruby.Locked_RMW_Read.Directory.miss_type_mach_latency_hist_seqr::stdev    84.281807                      
system.ruby.Locked_RMW_Read.Directory.miss_type_mach_latency_hist_seqr |        1843     58.84%     58.84% |        1056     33.72%     92.56% |         147      4.69%     97.25% |          53      1.69%     98.95% |          25      0.80%     99.74% |           4      0.13%     99.87% |           0      0.00%     99.87% |           1      0.03%     99.90% |           2      0.06%     99.97% |           1      0.03%    100.00%
system.ruby.Locked_RMW_Read.Directory.miss_type_mach_latency_hist_seqr::total         3132                      
system.ruby.Directory_Controller.GETX          512377      0.00%      0.00%
system.ruby.Directory_Controller.PUTX          331745      0.00%      0.00%
system.ruby.Directory_Controller.DMA_READ           30      0.00%      0.00%
system.ruby.Directory_Controller.DMA_WRITE         2240      0.00%      0.00%
system.ruby.Directory_Controller.Memory_Data       332268      0.00%      0.00%
system.ruby.Directory_Controller.Memory_Ack       333985      0.00%      0.00%
system.ruby.Directory_Controller.I.GETX        332244      0.00%      0.00%
system.ruby.Directory_Controller.I.DMA_READ           24      0.00%      0.00%
system.ruby.Directory_Controller.I.DMA_WRITE         2240      0.00%      0.00%
system.ruby.Directory_Controller.M.GETX        180084      0.00%      0.00%
system.ruby.Directory_Controller.M.PUTX        331739      0.00%      0.00%
system.ruby.Directory_Controller.M.DMA_READ            6      0.00%      0.00%
system.ruby.Directory_Controller.M_DRD.PUTX            6      0.00%      0.00%
system.ruby.Directory_Controller.M_DRDI.Memory_Ack            6      0.00%      0.00%
system.ruby.Directory_Controller.IM.GETX           47      0.00%      0.00%
system.ruby.Directory_Controller.IM.Memory_Data       332244      0.00%      0.00%
system.ruby.Directory_Controller.MI.GETX            2      0.00%      0.00%
system.ruby.Directory_Controller.MI.Memory_Ack       331739      0.00%      0.00%
system.ruby.Directory_Controller.ID.Memory_Data           24      0.00%      0.00%
system.ruby.Directory_Controller.ID_W.Memory_Ack         2240      0.00%      0.00%
system.ruby.DMA_Controller.ReadRequest   |          30    100.00%    100.00% |           0      0.00%    100.00%
system.ruby.DMA_Controller.ReadRequest::total           30                      
system.ruby.DMA_Controller.WriteRequest  |        2240    100.00%    100.00% |           0      0.00%    100.00%
system.ruby.DMA_Controller.WriteRequest::total         2240                      
system.ruby.DMA_Controller.Data          |          30    100.00%    100.00% |           0      0.00%    100.00%
system.ruby.DMA_Controller.Data::total             30                      
system.ruby.DMA_Controller.Ack           |        2240    100.00%    100.00% |           0      0.00%    100.00%
system.ruby.DMA_Controller.Ack::total            2240                      
system.ruby.DMA_Controller.READY.ReadRequest |          30    100.00%    100.00% |           0      0.00%    100.00%
system.ruby.DMA_Controller.READY.ReadRequest::total           30                      
system.ruby.DMA_Controller.READY.WriteRequest |        2240    100.00%    100.00% |           0      0.00%    100.00%
system.ruby.DMA_Controller.READY.WriteRequest::total         2240                      
system.ruby.DMA_Controller.BUSY_RD.Data  |          30    100.00%    100.00% |           0      0.00%    100.00%
system.ruby.DMA_Controller.BUSY_RD.Data::total           30                      
system.ruby.DMA_Controller.BUSY_WR.Ack   |        2240    100.00%    100.00% |           0      0.00%    100.00%
system.ruby.DMA_Controller.BUSY_WR.Ack::total         2240                      
system.ruby.L1Cache_Controller.Load      |      582691      0.86%      0.86% |    63123413     92.86%     93.72% |      443394      0.65%     94.37% |     3825058      5.63%    100.00%
system.ruby.L1Cache_Controller.Load::total     67974556                      
system.ruby.L1Cache_Controller.Ifetch    |     2956374      0.73%      0.73% |   376117499     93.30%     94.03% |     2333515      0.58%     94.61% |    21722512      5.39%    100.00%
system.ruby.L1Cache_Controller.Ifetch::total    403129900                      
system.ruby.L1Cache_Controller.Store     |      470063      1.88%      1.88% |    21363581     85.67%     87.55% |      335698      1.35%     88.90% |     2768985     11.10%    100.00%
system.ruby.L1Cache_Controller.Store::total     24938327                      
system.ruby.L1Cache_Controller.Data      |       79305     15.48%     15.48% |      223058     43.54%     59.02% |       69518     13.57%     72.59% |      140447     27.41%    100.00%
system.ruby.L1Cache_Controller.Data::total       512328                      
system.ruby.L1Cache_Controller.Fwd_GETX  |       53084     29.48%     29.48% |       38369     21.31%     50.78% |       41303     22.94%     73.72% |       47328     26.28%    100.00%
system.ruby.L1Cache_Controller.Fwd_GETX::total       180084                      
system.ruby.L1Cache_Controller.Inv       |           4     33.33%     33.33% |           0      0.00%     33.33% |           6     50.00%     83.33% |           2     16.67%    100.00%
system.ruby.L1Cache_Controller.Inv::total           12                      
system.ruby.L1Cache_Controller.Replacement |       33166      8.99%      8.99% |      199949     54.20%     63.19% |       34806      9.44%     72.63% |      100965     27.37%    100.00%
system.ruby.L1Cache_Controller.Replacement::total       368886                      
system.ruby.L1Cache_Controller.Writeback_Ack |       25606      7.72%      7.72% |      183881     55.43%     63.15% |       28280      8.52%     71.67% |       93978     28.33%    100.00%
system.ruby.L1Cache_Controller.Writeback_Ack::total       331745                      
system.ruby.L1Cache_Controller.I.Load    |       19575      8.67%      8.67% |      140493     62.25%     70.92% |       20197      8.95%     79.87% |       45427     20.13%    100.00%
system.ruby.L1Cache_Controller.I.Load::total       225692                      
system.ruby.L1Cache_Controller.I.Ifetch  |       50151     22.22%     22.22% |       58343     25.85%     48.07% |       42613     18.88%     66.95% |       74608     33.05%    100.00%
system.ruby.L1Cache_Controller.I.Ifetch::total       225715                      
system.ruby.L1Cache_Controller.I.Store   |        9579     15.72%     15.72% |       24222     39.76%     55.48% |        6708     11.01%     66.49% |       20412     33.51%    100.00%
system.ruby.L1Cache_Controller.I.Store::total        60921                      
system.ruby.L1Cache_Controller.I.Replacement |        7562     20.36%     20.36% |       16068     43.26%     63.61% |        6529     17.58%     81.19% |        6988     18.81%    100.00%
system.ruby.L1Cache_Controller.I.Replacement::total        37147                      
system.ruby.L1Cache_Controller.M.Load    |      563116      0.83%      0.83% |    62982920     92.97%     93.80% |      423197      0.62%     94.42% |     3779631      5.58%    100.00%
system.ruby.L1Cache_Controller.M.Load::total     67748864                      
system.ruby.L1Cache_Controller.M.Ifetch  |     2906223      0.72%      0.72% |   376059156     93.34%     94.06% |     2290902      0.57%     94.63% |    21647904      5.37%    100.00%
system.ruby.L1Cache_Controller.M.Ifetch::total    402904185                      
system.ruby.L1Cache_Controller.M.Store   |      460484      1.85%      1.85% |    21339359     85.78%     87.63% |      328990      1.32%     88.95% |     2748573     11.05%    100.00%
system.ruby.L1Cache_Controller.M.Store::total     24877406                      
system.ruby.L1Cache_Controller.M.Fwd_GETX |       53084     29.48%     29.48% |       38369     21.31%     50.78% |       41303     22.94%     73.72% |       47328     26.28%    100.00%
system.ruby.L1Cache_Controller.M.Fwd_GETX::total       180084                      
system.ruby.L1Cache_Controller.M.Inv     |           2     33.33%     33.33% |           0      0.00%     33.33% |           3     50.00%     83.33% |           1     16.67%    100.00%
system.ruby.L1Cache_Controller.M.Inv::total            6                      
system.ruby.L1Cache_Controller.M.Replacement |       25604      7.72%      7.72% |      183881     55.43%     63.15% |       28277      8.52%     71.67% |       93977     28.33%    100.00%
system.ruby.L1Cache_Controller.M.Replacement::total       331739                      
system.ruby.L1Cache_Controller.MI.Inv    |           2     33.33%     33.33% |           0      0.00%     33.33% |           3     50.00%     83.33% |           1     16.67%    100.00%
system.ruby.L1Cache_Controller.MI.Inv::total            6                      
system.ruby.L1Cache_Controller.MI.Writeback_Ack |       25606      7.72%      7.72% |      183881     55.43%     63.15% |       28280      8.52%     71.67% |       93978     28.33%    100.00%
system.ruby.L1Cache_Controller.MI.Writeback_Ack::total       331745                      
system.ruby.L1Cache_Controller.IS.Data   |       69726     15.45%     15.45% |      198836     44.05%     59.49% |       62810     13.91%     73.41% |      120035     26.59%    100.00%
system.ruby.L1Cache_Controller.IS.Data::total       451407                      
system.ruby.L1Cache_Controller.IM.Data   |        9579     15.72%     15.72% |       24222     39.76%     55.48% |        6708     11.01%     66.49% |       20412     33.51%    100.00%
system.ruby.L1Cache_Controller.IM.Data::total        60921                      

---------- End Simulation Statistics   ----------
