Couldn't import dot_parser, loading of dot files will not be possible.
Redirecting stdout to /root/anthony/lelec2990-sim/blackscholes/X86/l1d_size/128kB/stdout.txt
Redirecting stderr to /root/anthony/lelec2990-sim/blackscholes/X86/l1d_size/128kB/stderr.txt
gem5 Simulator System.  http://gem5.org
gem5 is copyrighted software; use the --copyright option for details.

gem5 compiled Jun  1 2016 11:13:13
gem5 started Jun  2 2016 00:16:24
gem5 executing on tibesti.info.ucl.ac.be, pid 959652
command line: /root/anthony/gem5/build/X86/gem5.opt --outdir=/root/anthony/lelec2990-sim/blackscholes/X86/l1d_size/128kB -e --stderr-file=/root/anthony/lelec2990-sim/blackscholes/X86/l1d_size/128kB/stderr.txt -r --stdout-file=/root/anthony/lelec2990-sim/blackscholes/X86/l1d_size/128kB/stdout.txt /root/anthony/gem5/configs/example/fs.py --mem-size 1GB --script /root/anthony/gem5/sim_script --num-cpus 4 --ruby -r 1 --restore-with-cpu timing --l1d_size 128kB

Global frequency set at 1000000000000 ticks per second
info: kernel located at: /root/anthony/debian/binaries/vmlinux
      0: rtc: Real-time clock set to Sun Jan  1 00:00:00 2012
**** REAL SIMULATION ****
info: Entering event queue @ 51903789180000.  Starting simulation...
Exiting @ tick 52418986855501 because m5_exit instruction encountered
