
---------- Begin Simulation Statistics ----------
sim_seconds                                  2.402311                       # Number of seconds simulated
sim_ticks                                2402311039500                       # Number of ticks simulated
final_tick                               54968697112501                       # Number of ticks from beginning of simulation (restored from checkpoints and never reset)
sim_freq                                 1000000000000                       # Frequency of simulated ticks
host_inst_rate                                 155756                       # Simulator instruction rate (inst/s)
host_op_rate                                   282337                       # Simulator op (including micro ops) rate (op/s)
host_tick_rate                              284975056                       # Simulator tick rate (ticks/s)
host_mem_usage                                1979100                       # Number of bytes of host memory used
host_seconds                                  8429.90                       # Real time elapsed on the host
sim_insts                                  1313003447                       # Number of instructions simulated
sim_ops                                    2380071729                       # Number of ops (including micro ops) simulated
system.voltage_domain.voltage                       1                       # Voltage in Volts
system.clk_domain.clock                          1000                       # Clock period in ticks
system.mem_ctrls.bytes_read::ruby.dir_cntrl0    143420672                       # Number of bytes read from this memory
system.mem_ctrls.bytes_read::total          143420672                       # Number of bytes read from this memory
system.mem_ctrls.bytes_written::ruby.dir_cntrl0    141953856                       # Number of bytes written to this memory
system.mem_ctrls.bytes_written::total       141953856                       # Number of bytes written to this memory
system.mem_ctrls.num_reads::ruby.dir_cntrl0      2240948                       # Number of read requests responded to by this memory
system.mem_ctrls.num_reads::total             2240948                       # Number of read requests responded to by this memory
system.mem_ctrls.num_writes::ruby.dir_cntrl0      2218029                       # Number of write requests responded to by this memory
system.mem_ctrls.num_writes::total            2218029                       # Number of write requests responded to by this memory
system.mem_ctrls.bw_read::ruby.dir_cntrl0     59701125                       # Total read bandwidth from this memory (bytes/s)
system.mem_ctrls.bw_read::total              59701125                       # Total read bandwidth from this memory (bytes/s)
system.mem_ctrls.bw_write::ruby.dir_cntrl0     59090540                       # Write bandwidth from this memory (bytes/s)
system.mem_ctrls.bw_write::total             59090540                       # Write bandwidth from this memory (bytes/s)
system.mem_ctrls.bw_total::ruby.dir_cntrl0    118791665                       # Total bandwidth to/from this memory (bytes/s)
system.mem_ctrls.bw_total::total            118791665                       # Total bandwidth to/from this memory (bytes/s)
system.mem_ctrls.readReqs                     2240948                       # Number of read requests accepted
system.mem_ctrls.writeReqs                    2218029                       # Number of write requests accepted
system.mem_ctrls.readBursts                   2240948                       # Number of DRAM read bursts, including those serviced by the write queue
system.mem_ctrls.writeBursts                  2218029                       # Number of DRAM write bursts, including those merged in the write queue
system.mem_ctrls.bytesReadDRAM              141977088                       # Total number of bytes read from DRAM
system.mem_ctrls.bytesReadWrQ                 1443584                       # Total number of bytes read from write queue
system.mem_ctrls.bytesWritten               141916544                       # Total number of bytes written to DRAM
system.mem_ctrls.bytesReadSys               143420672                       # Total read bytes from the system interface side
system.mem_ctrls.bytesWrittenSys            141953856                       # Total written bytes from the system interface side
system.mem_ctrls.servicedByWrQ                  22556                       # Number of DRAM read bursts serviced by the write queue
system.mem_ctrls.mergedWrBursts                   583                       # Number of DRAM write bursts merged with an existing one
system.mem_ctrls.neitherReadNorWriteReqs            0                       # Number of requests that are neither read nor write
system.mem_ctrls.perBankRdBursts::0            142179                       # Per bank write bursts
system.mem_ctrls.perBankRdBursts::1            136907                       # Per bank write bursts
system.mem_ctrls.perBankRdBursts::2            134371                       # Per bank write bursts
system.mem_ctrls.perBankRdBursts::3            138193                       # Per bank write bursts
system.mem_ctrls.perBankRdBursts::4            140948                       # Per bank write bursts
system.mem_ctrls.perBankRdBursts::5            139846                       # Per bank write bursts
system.mem_ctrls.perBankRdBursts::6            143041                       # Per bank write bursts
system.mem_ctrls.perBankRdBursts::7            133814                       # Per bank write bursts
system.mem_ctrls.perBankRdBursts::8            148416                       # Per bank write bursts
system.mem_ctrls.perBankRdBursts::9            135153                       # Per bank write bursts
system.mem_ctrls.perBankRdBursts::10           132319                       # Per bank write bursts
system.mem_ctrls.perBankRdBursts::11           135515                       # Per bank write bursts
system.mem_ctrls.perBankRdBursts::12           137903                       # Per bank write bursts
system.mem_ctrls.perBankRdBursts::13           136322                       # Per bank write bursts
system.mem_ctrls.perBankRdBursts::14           144362                       # Per bank write bursts
system.mem_ctrls.perBankRdBursts::15           139103                       # Per bank write bursts
system.mem_ctrls.perBankWrBursts::0            143342                       # Per bank write bursts
system.mem_ctrls.perBankWrBursts::1            138113                       # Per bank write bursts
system.mem_ctrls.perBankWrBursts::2            133529                       # Per bank write bursts
system.mem_ctrls.perBankWrBursts::3            137776                       # Per bank write bursts
system.mem_ctrls.perBankWrBursts::4            142251                       # Per bank write bursts
system.mem_ctrls.perBankWrBursts::5            139203                       # Per bank write bursts
system.mem_ctrls.perBankWrBursts::6            142650                       # Per bank write bursts
system.mem_ctrls.perBankWrBursts::7            135680                       # Per bank write bursts
system.mem_ctrls.perBankWrBursts::8            149484                       # Per bank write bursts
system.mem_ctrls.perBankWrBursts::9            134183                       # Per bank write bursts
system.mem_ctrls.perBankWrBursts::10           131686                       # Per bank write bursts
system.mem_ctrls.perBankWrBursts::11           134688                       # Per bank write bursts
system.mem_ctrls.perBankWrBursts::12           136963                       # Per bank write bursts
system.mem_ctrls.perBankWrBursts::13           135780                       # Per bank write bursts
system.mem_ctrls.perBankWrBursts::14           143886                       # Per bank write bursts
system.mem_ctrls.perBankWrBursts::15           138232                       # Per bank write bursts
system.mem_ctrls.numRdRetry                         0                       # Number of times read queue was full causing retry
system.mem_ctrls.numWrRetry                         0                       # Number of times write queue was full causing retry
system.mem_ctrls.totGap                  2402311043500                       # Total gap between requests
system.mem_ctrls.readPktSize::0                     0                       # Read request sizes (log2)
system.mem_ctrls.readPktSize::1                     0                       # Read request sizes (log2)
system.mem_ctrls.readPktSize::2                     0                       # Read request sizes (log2)
system.mem_ctrls.readPktSize::3                     0                       # Read request sizes (log2)
system.mem_ctrls.readPktSize::4                     0                       # Read request sizes (log2)
system.mem_ctrls.readPktSize::5                     0                       # Read request sizes (log2)
system.mem_ctrls.readPktSize::6               2240948                       # Read request sizes (log2)
system.mem_ctrls.writePktSize::0                    0                       # Write request sizes (log2)
system.mem_ctrls.writePktSize::1                    0                       # Write request sizes (log2)
system.mem_ctrls.writePktSize::2                    0                       # Write request sizes (log2)
system.mem_ctrls.writePktSize::3                    0                       # Write request sizes (log2)
system.mem_ctrls.writePktSize::4                    0                       # Write request sizes (log2)
system.mem_ctrls.writePktSize::5                    0                       # Write request sizes (log2)
system.mem_ctrls.writePktSize::6              2218029                       # Write request sizes (log2)
system.mem_ctrls.rdQLenPdf::0                 2209949                       # What read queue length does an incoming req see
system.mem_ctrls.rdQLenPdf::1                    8379                       # What read queue length does an incoming req see
system.mem_ctrls.rdQLenPdf::2                      64                       # What read queue length does an incoming req see
system.mem_ctrls.rdQLenPdf::3                       0                       # What read queue length does an incoming req see
system.mem_ctrls.rdQLenPdf::4                       0                       # What read queue length does an incoming req see
system.mem_ctrls.rdQLenPdf::5                       0                       # What read queue length does an incoming req see
system.mem_ctrls.rdQLenPdf::6                       0                       # What read queue length does an incoming req see
system.mem_ctrls.rdQLenPdf::7                       0                       # What read queue length does an incoming req see
system.mem_ctrls.rdQLenPdf::8                       0                       # What read queue length does an incoming req see
system.mem_ctrls.rdQLenPdf::9                       0                       # What read queue length does an incoming req see
system.mem_ctrls.rdQLenPdf::10                      0                       # What read queue length does an incoming req see
system.mem_ctrls.rdQLenPdf::11                      0                       # What read queue length does an incoming req see
system.mem_ctrls.rdQLenPdf::12                      0                       # What read queue length does an incoming req see
system.mem_ctrls.rdQLenPdf::13                      0                       # What read queue length does an incoming req see
system.mem_ctrls.rdQLenPdf::14                      0                       # What read queue length does an incoming req see
system.mem_ctrls.rdQLenPdf::15                      0                       # What read queue length does an incoming req see
system.mem_ctrls.rdQLenPdf::16                      0                       # What read queue length does an incoming req see
system.mem_ctrls.rdQLenPdf::17                      0                       # What read queue length does an incoming req see
system.mem_ctrls.rdQLenPdf::18                      0                       # What read queue length does an incoming req see
system.mem_ctrls.rdQLenPdf::19                      0                       # What read queue length does an incoming req see
system.mem_ctrls.rdQLenPdf::20                      0                       # What read queue length does an incoming req see
system.mem_ctrls.rdQLenPdf::21                      0                       # What read queue length does an incoming req see
system.mem_ctrls.rdQLenPdf::22                      0                       # What read queue length does an incoming req see
system.mem_ctrls.rdQLenPdf::23                      0                       # What read queue length does an incoming req see
system.mem_ctrls.rdQLenPdf::24                      0                       # What read queue length does an incoming req see
system.mem_ctrls.rdQLenPdf::25                      0                       # What read queue length does an incoming req see
system.mem_ctrls.rdQLenPdf::26                      0                       # What read queue length does an incoming req see
system.mem_ctrls.rdQLenPdf::27                      0                       # What read queue length does an incoming req see
system.mem_ctrls.rdQLenPdf::28                      0                       # What read queue length does an incoming req see
system.mem_ctrls.rdQLenPdf::29                      0                       # What read queue length does an incoming req see
system.mem_ctrls.rdQLenPdf::30                      0                       # What read queue length does an incoming req see
system.mem_ctrls.rdQLenPdf::31                      0                       # What read queue length does an incoming req see
system.mem_ctrls.wrQLenPdf::0                       0                       # What write queue length does an incoming req see
system.mem_ctrls.wrQLenPdf::1                       0                       # What write queue length does an incoming req see
system.mem_ctrls.wrQLenPdf::2                       0                       # What write queue length does an incoming req see
system.mem_ctrls.wrQLenPdf::3                       0                       # What write queue length does an incoming req see
system.mem_ctrls.wrQLenPdf::4                       0                       # What write queue length does an incoming req see
system.mem_ctrls.wrQLenPdf::5                       0                       # What write queue length does an incoming req see
system.mem_ctrls.wrQLenPdf::6                       0                       # What write queue length does an incoming req see
system.mem_ctrls.wrQLenPdf::7                       0                       # What write queue length does an incoming req see
system.mem_ctrls.wrQLenPdf::8                       0                       # What write queue length does an incoming req see
system.mem_ctrls.wrQLenPdf::9                       0                       # What write queue length does an incoming req see
system.mem_ctrls.wrQLenPdf::10                      0                       # What write queue length does an incoming req see
system.mem_ctrls.wrQLenPdf::11                      0                       # What write queue length does an incoming req see
system.mem_ctrls.wrQLenPdf::12                      0                       # What write queue length does an incoming req see
system.mem_ctrls.wrQLenPdf::13                      0                       # What write queue length does an incoming req see
system.mem_ctrls.wrQLenPdf::14                      0                       # What write queue length does an incoming req see
system.mem_ctrls.wrQLenPdf::15                   6063                       # What write queue length does an incoming req see
system.mem_ctrls.wrQLenPdf::16                   6798                       # What write queue length does an incoming req see
system.mem_ctrls.wrQLenPdf::17                 136524                       # What write queue length does an incoming req see
system.mem_ctrls.wrQLenPdf::18                 137930                       # What write queue length does an incoming req see
system.mem_ctrls.wrQLenPdf::19                 138103                       # What write queue length does an incoming req see
system.mem_ctrls.wrQLenPdf::20                 138088                       # What write queue length does an incoming req see
system.mem_ctrls.wrQLenPdf::21                 138074                       # What write queue length does an incoming req see
system.mem_ctrls.wrQLenPdf::22                 138230                       # What write queue length does an incoming req see
system.mem_ctrls.wrQLenPdf::23                 138087                       # What write queue length does an incoming req see
system.mem_ctrls.wrQLenPdf::24                 138008                       # What write queue length does an incoming req see
system.mem_ctrls.wrQLenPdf::25                 137881                       # What write queue length does an incoming req see
system.mem_ctrls.wrQLenPdf::26                 137697                       # What write queue length does an incoming req see
system.mem_ctrls.wrQLenPdf::27                 137667                       # What write queue length does an incoming req see
system.mem_ctrls.wrQLenPdf::28                 137647                       # What write queue length does an incoming req see
system.mem_ctrls.wrQLenPdf::29                 137645                       # What write queue length does an incoming req see
system.mem_ctrls.wrQLenPdf::30                 137618                       # What write queue length does an incoming req see
system.mem_ctrls.wrQLenPdf::31                 137608                       # What write queue length does an incoming req see
system.mem_ctrls.wrQLenPdf::32                 137602                       # What write queue length does an incoming req see
system.mem_ctrls.wrQLenPdf::33                     91                       # What write queue length does an incoming req see
system.mem_ctrls.wrQLenPdf::34                     39                       # What write queue length does an incoming req see
system.mem_ctrls.wrQLenPdf::35                     26                       # What write queue length does an incoming req see
system.mem_ctrls.wrQLenPdf::36                     12                       # What write queue length does an incoming req see
system.mem_ctrls.wrQLenPdf::37                      6                       # What write queue length does an incoming req see
system.mem_ctrls.wrQLenPdf::38                      2                       # What write queue length does an incoming req see
system.mem_ctrls.wrQLenPdf::39                      0                       # What write queue length does an incoming req see
system.mem_ctrls.wrQLenPdf::40                      0                       # What write queue length does an incoming req see
system.mem_ctrls.wrQLenPdf::41                      0                       # What write queue length does an incoming req see
system.mem_ctrls.wrQLenPdf::42                      0                       # What write queue length does an incoming req see
system.mem_ctrls.wrQLenPdf::43                      0                       # What write queue length does an incoming req see
system.mem_ctrls.wrQLenPdf::44                      0                       # What write queue length does an incoming req see
system.mem_ctrls.wrQLenPdf::45                      0                       # What write queue length does an incoming req see
system.mem_ctrls.wrQLenPdf::46                      0                       # What write queue length does an incoming req see
system.mem_ctrls.wrQLenPdf::47                      0                       # What write queue length does an incoming req see
system.mem_ctrls.wrQLenPdf::48                      0                       # What write queue length does an incoming req see
system.mem_ctrls.wrQLenPdf::49                      0                       # What write queue length does an incoming req see
system.mem_ctrls.wrQLenPdf::50                      0                       # What write queue length does an incoming req see
system.mem_ctrls.wrQLenPdf::51                      0                       # What write queue length does an incoming req see
system.mem_ctrls.wrQLenPdf::52                      0                       # What write queue length does an incoming req see
system.mem_ctrls.wrQLenPdf::53                      0                       # What write queue length does an incoming req see
system.mem_ctrls.wrQLenPdf::54                      0                       # What write queue length does an incoming req see
system.mem_ctrls.wrQLenPdf::55                      0                       # What write queue length does an incoming req see
system.mem_ctrls.wrQLenPdf::56                      0                       # What write queue length does an incoming req see
system.mem_ctrls.wrQLenPdf::57                      0                       # What write queue length does an incoming req see
system.mem_ctrls.wrQLenPdf::58                      0                       # What write queue length does an incoming req see
system.mem_ctrls.wrQLenPdf::59                      0                       # What write queue length does an incoming req see
system.mem_ctrls.wrQLenPdf::60                      0                       # What write queue length does an incoming req see
system.mem_ctrls.wrQLenPdf::61                      0                       # What write queue length does an incoming req see
system.mem_ctrls.wrQLenPdf::62                      0                       # What write queue length does an incoming req see
system.mem_ctrls.wrQLenPdf::63                      0                       # What write queue length does an incoming req see
system.mem_ctrls.bytesPerActivate::samples      1655410                       # Bytes accessed per row activation
system.mem_ctrls.bytesPerActivate::mean    171.494607                       # Bytes accessed per row activation
system.mem_ctrls.bytesPerActivate::gmean   125.629752                       # Bytes accessed per row activation
system.mem_ctrls.bytesPerActivate::stdev   174.948996                       # Bytes accessed per row activation
system.mem_ctrls.bytesPerActivate::0-127       723496     43.70%     43.70% # Bytes accessed per row activation
system.mem_ctrls.bytesPerActivate::128-255       575569     34.77%     78.47% # Bytes accessed per row activation
system.mem_ctrls.bytesPerActivate::256-383       214268     12.94%     91.42% # Bytes accessed per row activation
system.mem_ctrls.bytesPerActivate::384-511        55613      3.36%     94.78% # Bytes accessed per row activation
system.mem_ctrls.bytesPerActivate::512-639        25552      1.54%     96.32% # Bytes accessed per row activation
system.mem_ctrls.bytesPerActivate::640-767        14877      0.90%     97.22% # Bytes accessed per row activation
system.mem_ctrls.bytesPerActivate::768-895        11316      0.68%     97.90% # Bytes accessed per row activation
system.mem_ctrls.bytesPerActivate::896-1023         7506      0.45%     98.36% # Bytes accessed per row activation
system.mem_ctrls.bytesPerActivate::1024-1151        27213      1.64%    100.00% # Bytes accessed per row activation
system.mem_ctrls.bytesPerActivate::total      1655410                       # Bytes accessed per row activation
system.mem_ctrls.rdPerTurnAround::samples       137599                       # Reads before turning the bus around for writes
system.mem_ctrls.rdPerTurnAround::mean      16.122152                       # Reads before turning the bus around for writes
system.mem_ctrls.rdPerTurnAround::stdev     11.906836                       # Reads before turning the bus around for writes
system.mem_ctrls.rdPerTurnAround::0-63         137541     99.96%     99.96% # Reads before turning the bus around for writes
system.mem_ctrls.rdPerTurnAround::64-127           26      0.02%     99.98% # Reads before turning the bus around for writes
system.mem_ctrls.rdPerTurnAround::128-191            6      0.00%     99.98% # Reads before turning the bus around for writes
system.mem_ctrls.rdPerTurnAround::192-255            3      0.00%     99.98% # Reads before turning the bus around for writes
system.mem_ctrls.rdPerTurnAround::256-319            2      0.00%     99.98% # Reads before turning the bus around for writes
system.mem_ctrls.rdPerTurnAround::384-447            1      0.00%     99.99% # Reads before turning the bus around for writes
system.mem_ctrls.rdPerTurnAround::448-511            3      0.00%     99.99% # Reads before turning the bus around for writes
system.mem_ctrls.rdPerTurnAround::512-575            2      0.00%     99.99% # Reads before turning the bus around for writes
system.mem_ctrls.rdPerTurnAround::640-703            4      0.00%     99.99% # Reads before turning the bus around for writes
system.mem_ctrls.rdPerTurnAround::832-895            2      0.00%     99.99% # Reads before turning the bus around for writes
system.mem_ctrls.rdPerTurnAround::896-959            2      0.00%     99.99% # Reads before turning the bus around for writes
system.mem_ctrls.rdPerTurnAround::960-1023            1      0.00%    100.00% # Reads before turning the bus around for writes
system.mem_ctrls.rdPerTurnAround::1024-1087            1      0.00%    100.00% # Reads before turning the bus around for writes
system.mem_ctrls.rdPerTurnAround::1088-1151            1      0.00%    100.00% # Reads before turning the bus around for writes
system.mem_ctrls.rdPerTurnAround::1152-1215            1      0.00%    100.00% # Reads before turning the bus around for writes
system.mem_ctrls.rdPerTurnAround::1280-1343            2      0.00%    100.00% # Reads before turning the bus around for writes
system.mem_ctrls.rdPerTurnAround::1920-1983            1      0.00%    100.00% # Reads before turning the bus around for writes
system.mem_ctrls.rdPerTurnAround::total        137599                       # Reads before turning the bus around for writes
system.mem_ctrls.wrPerTurnAround::samples       137599                       # Writes before turning the bus around for reads
system.mem_ctrls.wrPerTurnAround::mean      16.115277                       # Writes before turning the bus around for reads
system.mem_ctrls.wrPerTurnAround::gmean     16.107218                       # Writes before turning the bus around for reads
system.mem_ctrls.wrPerTurnAround::stdev      0.537030                       # Writes before turning the bus around for reads
system.mem_ctrls.wrPerTurnAround::16           130893     95.13%     95.13% # Writes before turning the bus around for reads
system.mem_ctrls.wrPerTurnAround::17              274      0.20%     95.33% # Writes before turning the bus around for reads
system.mem_ctrls.wrPerTurnAround::18             4385      3.19%     98.51% # Writes before turning the bus around for reads
system.mem_ctrls.wrPerTurnAround::19             1482      1.08%     99.59% # Writes before turning the bus around for reads
system.mem_ctrls.wrPerTurnAround::20              516      0.38%     99.96% # Writes before turning the bus around for reads
system.mem_ctrls.wrPerTurnAround::21               24      0.02%     99.98% # Writes before turning the bus around for reads
system.mem_ctrls.wrPerTurnAround::22               11      0.01%     99.99% # Writes before turning the bus around for reads
system.mem_ctrls.wrPerTurnAround::23                5      0.00%     99.99% # Writes before turning the bus around for reads
system.mem_ctrls.wrPerTurnAround::24                4      0.00%    100.00% # Writes before turning the bus around for reads
system.mem_ctrls.wrPerTurnAround::26                1      0.00%    100.00% # Writes before turning the bus around for reads
system.mem_ctrls.wrPerTurnAround::27                3      0.00%    100.00% # Writes before turning the bus around for reads
system.mem_ctrls.wrPerTurnAround::28                1      0.00%    100.00% # Writes before turning the bus around for reads
system.mem_ctrls.wrPerTurnAround::total        137599                       # Writes before turning the bus around for reads
system.mem_ctrls.totQLat                  33165187683                       # Total ticks spent queuing
system.mem_ctrls.totMemAccLat             74760037683                       # Total ticks spent from burst creation until serviced by the DRAM
system.mem_ctrls.totBusLat                11091960000                       # Total ticks spent in databus transfers
system.mem_ctrls.avgQLat                     14950.10                       # Average queueing delay per DRAM burst
system.mem_ctrls.avgBusLat                    5000.00                       # Average bus latency per DRAM burst
system.mem_ctrls.avgMemAccLat                33700.10                       # Average memory access latency per DRAM burst
system.mem_ctrls.avgRdBW                        59.10                       # Average DRAM read bandwidth in MiByte/s
system.mem_ctrls.avgWrBW                        59.08                       # Average achieved write bandwidth in MiByte/s
system.mem_ctrls.avgRdBWSys                     59.70                       # Average system read bandwidth in MiByte/s
system.mem_ctrls.avgWrBWSys                     59.09                       # Average system write bandwidth in MiByte/s
system.mem_ctrls.peakBW                      12800.00                       # Theoretical peak bandwidth in MiByte/s
system.mem_ctrls.busUtil                         0.92                       # Data bus utilization in percentage
system.mem_ctrls.busUtilRead                     0.46                       # Data bus utilization in percentage for reads
system.mem_ctrls.busUtilWrite                    0.46                       # Data bus utilization in percentage for writes
system.mem_ctrls.avgRdQLen                       1.00                       # Average read queue length when enqueuing
system.mem_ctrls.avgWrQLen                      25.48                       # Average write queue length when enqueuing
system.mem_ctrls.readRowHits                  1509964                       # Number of row buffer hits during reads
system.mem_ctrls.writeRowHits                 1270468                       # Number of row buffer hits during writes
system.mem_ctrls.readRowHitRate                 68.07                       # Row buffer hit rate for reads
system.mem_ctrls.writeRowHitRate                57.29                       # Row buffer hit rate for writes
system.mem_ctrls.avgGap                     538758.34                       # Average gap between requests
system.mem_ctrls.pageHitRate                    62.68                       # Row buffer hit rate, read and write combined
system.mem_ctrls_0.actEnergy               6541977960                       # Energy for activate commands per rank (pJ)
system.mem_ctrls_0.preEnergy               3569531625                       # Energy for precharge commands per rank (pJ)
system.mem_ctrls_0.readEnergy              9194593200                       # Energy for read commands per rank (pJ)
system.mem_ctrls_0.writeEnergy             7656301440                       # Energy for write commands per rank (pJ)
system.mem_ctrls_0.refreshEnergy         157954667520                       # Energy for refresh commands per rank (pJ)
system.mem_ctrls_0.actBackEnergy         620410464270                       # Energy for active background per rank (pJ)
system.mem_ctrls_0.preBackEnergy         906788626500                       # Energy for precharge background per rank (pJ)
system.mem_ctrls_0.totalEnergy           1712116162515                       # Total energy per rank (pJ)
system.mem_ctrls_0.averagePower            707.969537                       # Core power per rank (mW)
system.mem_ctrls_0.memoryStateTime::IDLE 1503654140250                       # Time in different power states
system.mem_ctrls_0.memoryStateTime::REF   80218580000                       # Time in different power states
system.mem_ctrls_0.memoryStateTime::PRE_PDN            0                       # Time in different power states
system.mem_ctrls_0.memoryStateTime::ACT  818441560500                       # Time in different power states
system.mem_ctrls_0.memoryStateTime::ACT_PDN            0                       # Time in different power states
system.mem_ctrls_1.actEnergy               6446585880                       # Energy for activate commands per rank (pJ)
system.mem_ctrls_1.preEnergy               3517482375                       # Energy for precharge commands per rank (pJ)
system.mem_ctrls_1.readEnergy              9104253600                       # Energy for read commands per rank (pJ)
system.mem_ctrls_1.writeEnergy             7531930800                       # Energy for write commands per rank (pJ)
system.mem_ctrls_1.refreshEnergy         157954667520                       # Energy for refresh commands per rank (pJ)
system.mem_ctrls_1.actBackEnergy         621964770480                       # Energy for active background per rank (pJ)
system.mem_ctrls_1.preBackEnergy         905425200000                       # Energy for precharge background per rank (pJ)
system.mem_ctrls_1.totalEnergy           1711944890655                       # Total energy per rank (pJ)
system.mem_ctrls_1.averagePower            707.898715                       # Core power per rank (mW)
system.mem_ctrls_1.memoryStateTime::IDLE 1501187171751                       # Time in different power states
system.mem_ctrls_1.memoryStateTime::REF   80218580000                       # Time in different power states
system.mem_ctrls_1.memoryStateTime::PRE_PDN            0                       # Time in different power states
system.mem_ctrls_1.memoryStateTime::ACT  820909743499                       # Time in different power states
system.mem_ctrls_1.memoryStateTime::ACT_PDN            0                       # Time in different power states
system.cpu_voltage_domain.voltage                   1                       # Voltage in Volts
system.cpu_clk_domain.clock                       500                       # Clock period in ticks
system.cpu0.apic_clk_domain.clock                8000                       # Clock period in ticks
system.cpu0.numCycles                      4807776147                       # number of cpu cycles simulated
system.cpu0.numWorkItemsStarted                     0                       # number of work items this cpu started
system.cpu0.numWorkItemsCompleted                   0                       # number of work items this cpu completed
system.cpu0.kern.inst.arm                           0                       # number of arm instructions executed
system.cpu0.kern.inst.quiesce                       0                       # number of quiesce instructions executed
system.cpu0.committedInsts                    3883288                       # Number of instructions committed
system.cpu0.committedOps                      8046238                       # Number of ops (including micro ops) committed
system.cpu0.num_int_alu_accesses              7824527                       # Number of integer alu accesses
system.cpu0.num_fp_alu_accesses                   372                       # Number of float alu accesses
system.cpu0.num_func_calls                     189296                       # number of times a function call or return occured
system.cpu0.num_conditional_control_insts       613611                       # number of instructions that are conditional controls
system.cpu0.num_int_insts                     7824527                       # number of integer instructions
system.cpu0.num_fp_insts                          372                       # number of float instructions
system.cpu0.num_int_register_reads           15298744                       # number of times the integer registers were read
system.cpu0.num_int_register_writes           6449788                       # number of times the integer registers were written
system.cpu0.num_fp_register_reads                 596                       # number of times the floating registers were read
system.cpu0.num_fp_register_writes                261                       # number of times the floating registers were written
system.cpu0.num_cc_register_reads             4789243                       # number of times the CC registers were read
system.cpu0.num_cc_register_writes            2961125                       # number of times the CC registers were written
system.cpu0.num_mem_refs                      1653091                       # number of memory refs
system.cpu0.num_load_insts                    1021965                       # Number of load instructions
system.cpu0.num_store_insts                    631126                       # Number of store instructions
system.cpu0.num_idle_cycles              4779621304.462230                       # Number of idle cycles
system.cpu0.num_busy_cycles              28154842.537770                       # Number of busy cycles
system.cpu0.not_idle_fraction                0.005856                       # Percentage of non-idle cycles
system.cpu0.idle_fraction                    0.994144                       # Percentage of idle cycles
system.cpu0.Branches                           867592                       # Number of branches fetched
system.cpu0.op_class::No_OpClass                81143      1.01%      1.01% # Class of executed instruction
system.cpu0.op_class::IntAlu                  6277232     78.01%     79.02% # Class of executed instruction
system.cpu0.op_class::IntMult                    8997      0.11%     79.13% # Class of executed instruction
system.cpu0.op_class::IntDiv                    25615      0.32%     79.45% # Class of executed instruction
system.cpu0.op_class::FloatAdd                    244      0.00%     79.46% # Class of executed instruction
system.cpu0.op_class::FloatCmp                      0      0.00%     79.46% # Class of executed instruction
system.cpu0.op_class::FloatCvt                      0      0.00%     79.46% # Class of executed instruction
system.cpu0.op_class::FloatMult                     0      0.00%     79.46% # Class of executed instruction
system.cpu0.op_class::FloatDiv                      0      0.00%     79.46% # Class of executed instruction
system.cpu0.op_class::FloatSqrt                     0      0.00%     79.46% # Class of executed instruction
system.cpu0.op_class::SimdAdd                       0      0.00%     79.46% # Class of executed instruction
system.cpu0.op_class::SimdAddAcc                    0      0.00%     79.46% # Class of executed instruction
system.cpu0.op_class::SimdAlu                       0      0.00%     79.46% # Class of executed instruction
system.cpu0.op_class::SimdCmp                       0      0.00%     79.46% # Class of executed instruction
system.cpu0.op_class::SimdCvt                       0      0.00%     79.46% # Class of executed instruction
system.cpu0.op_class::SimdMisc                      0      0.00%     79.46% # Class of executed instruction
system.cpu0.op_class::SimdMult                      0      0.00%     79.46% # Class of executed instruction
system.cpu0.op_class::SimdMultAcc                   0      0.00%     79.46% # Class of executed instruction
system.cpu0.op_class::SimdShift                     0      0.00%     79.46% # Class of executed instruction
system.cpu0.op_class::SimdShiftAcc                  0      0.00%     79.46% # Class of executed instruction
system.cpu0.op_class::SimdSqrt                      0      0.00%     79.46% # Class of executed instruction
system.cpu0.op_class::SimdFloatAdd                  0      0.00%     79.46% # Class of executed instruction
system.cpu0.op_class::SimdFloatAlu                  0      0.00%     79.46% # Class of executed instruction
system.cpu0.op_class::SimdFloatCmp                  0      0.00%     79.46% # Class of executed instruction
system.cpu0.op_class::SimdFloatCvt                  0      0.00%     79.46% # Class of executed instruction
system.cpu0.op_class::SimdFloatDiv                  0      0.00%     79.46% # Class of executed instruction
system.cpu0.op_class::SimdFloatMisc                 0      0.00%     79.46% # Class of executed instruction
system.cpu0.op_class::SimdFloatMult                 0      0.00%     79.46% # Class of executed instruction
system.cpu0.op_class::SimdFloatMultAcc              0      0.00%     79.46% # Class of executed instruction
system.cpu0.op_class::SimdFloatSqrt                 0      0.00%     79.46% # Class of executed instruction
system.cpu0.op_class::MemRead                 1021965     12.70%     92.16% # Class of executed instruction
system.cpu0.op_class::MemWrite                 631126      7.84%    100.00% # Class of executed instruction
system.cpu0.op_class::IprAccess                     0      0.00%    100.00% # Class of executed instruction
system.cpu0.op_class::InstPrefetch                  0      0.00%    100.00% # Class of executed instruction
system.cpu0.op_class::total                   8046322                       # Class of executed instruction
system.cpu1.apic_clk_domain.clock                8000                       # Clock period in ticks
system.cpu1.numCycles                      4799381312                       # number of cpu cycles simulated
system.cpu1.numWorkItemsStarted                     0                       # number of work items this cpu started
system.cpu1.numWorkItemsCompleted                   0                       # number of work items this cpu completed
system.cpu1.kern.inst.arm                           0                       # number of arm instructions executed
system.cpu1.kern.inst.quiesce                       0                       # number of quiesce instructions executed
system.cpu1.committedInsts                 1297729717                       # Number of instructions committed
system.cpu1.committedOps                   2349191245                       # Number of ops (including micro ops) committed
system.cpu1.num_int_alu_accesses           1507211677                       # Number of integer alu accesses
system.cpu1.num_fp_alu_accesses            1130300518                       # Number of float alu accesses
system.cpu1.num_func_calls                     802851                       # number of times a function call or return occured
system.cpu1.num_conditional_control_insts    160944709                       # number of instructions that are conditional controls
system.cpu1.num_int_insts                  1507211677                       # number of integer instructions
system.cpu1.num_fp_insts                   1130300518                       # number of float instructions
system.cpu1.num_int_register_reads         2941026268                       # number of times the integer registers were read
system.cpu1.num_int_register_writes        1034191625                       # number of times the integer registers were written
system.cpu1.num_fp_register_reads          1382500686                       # number of times the floating registers were read
system.cpu1.num_fp_register_writes         1075410587                       # number of times the floating registers were written
system.cpu1.num_cc_register_reads           939434576                       # number of times the CC registers were read
system.cpu1.num_cc_register_writes          528251110                       # number of times the CC registers were written
system.cpu1.num_mem_refs                    388400422                       # number of memory refs
system.cpu1.num_load_insts                  350000173                       # Number of load instructions
system.cpu1.num_store_insts                  38400249                       # Number of store instructions
system.cpu1.num_idle_cycles              32313821.368763                       # Number of idle cycles
system.cpu1.num_busy_cycles              4767067490.631237                       # Number of busy cycles
system.cpu1.not_idle_fraction                0.993267                       # Percentage of non-idle cycles
system.cpu1.idle_fraction                    0.006733                       # Percentage of idle cycles
system.cpu1.Branches                        166339999                       # Number of branches fetched
system.cpu1.op_class::No_OpClass              3904391      0.17%      0.17% # Class of executed instruction
system.cpu1.op_class::IntAlu               1229188775     52.32%     52.49% # Class of executed instruction
system.cpu1.op_class::IntMult                 4268627      0.18%     52.67% # Class of executed instruction
system.cpu1.op_class::IntDiv                      924      0.00%     52.67% # Class of executed instruction
system.cpu1.op_class::FloatAdd              723444434     30.80%     83.47% # Class of executed instruction
system.cpu1.op_class::FloatCmp                      0      0.00%     83.47% # Class of executed instruction
system.cpu1.op_class::FloatCvt                      0      0.00%     83.47% # Class of executed instruction
system.cpu1.op_class::FloatMult                     0      0.00%     83.47% # Class of executed instruction
system.cpu1.op_class::FloatDiv                      0      0.00%     83.47% # Class of executed instruction
system.cpu1.op_class::FloatSqrt                     0      0.00%     83.47% # Class of executed instruction
system.cpu1.op_class::SimdAdd                       0      0.00%     83.47% # Class of executed instruction
system.cpu1.op_class::SimdAddAcc                    0      0.00%     83.47% # Class of executed instruction
system.cpu1.op_class::SimdAlu                       0      0.00%     83.47% # Class of executed instruction
system.cpu1.op_class::SimdCmp                       0      0.00%     83.47% # Class of executed instruction
system.cpu1.op_class::SimdCvt                       0      0.00%     83.47% # Class of executed instruction
system.cpu1.op_class::SimdMisc                      0      0.00%     83.47% # Class of executed instruction
system.cpu1.op_class::SimdMult                      0      0.00%     83.47% # Class of executed instruction
system.cpu1.op_class::SimdMultAcc                   0      0.00%     83.47% # Class of executed instruction
system.cpu1.op_class::SimdShift                     0      0.00%     83.47% # Class of executed instruction
system.cpu1.op_class::SimdShiftAcc                  0      0.00%     83.47% # Class of executed instruction
system.cpu1.op_class::SimdSqrt                      0      0.00%     83.47% # Class of executed instruction
system.cpu1.op_class::SimdFloatAdd                  0      0.00%     83.47% # Class of executed instruction
system.cpu1.op_class::SimdFloatAlu                  0      0.00%     83.47% # Class of executed instruction
system.cpu1.op_class::SimdFloatCmp                  0      0.00%     83.47% # Class of executed instruction
system.cpu1.op_class::SimdFloatCvt                  0      0.00%     83.47% # Class of executed instruction
system.cpu1.op_class::SimdFloatDiv                  0      0.00%     83.47% # Class of executed instruction
system.cpu1.op_class::SimdFloatMisc                 0      0.00%     83.47% # Class of executed instruction
system.cpu1.op_class::SimdFloatMult                 0      0.00%     83.47% # Class of executed instruction
system.cpu1.op_class::SimdFloatMultAcc              0      0.00%     83.47% # Class of executed instruction
system.cpu1.op_class::SimdFloatSqrt                 0      0.00%     83.47% # Class of executed instruction
system.cpu1.op_class::MemRead               350000173     14.90%     98.37% # Class of executed instruction
system.cpu1.op_class::MemWrite               38400249      1.63%    100.00% # Class of executed instruction
system.cpu1.op_class::IprAccess                     0      0.00%    100.00% # Class of executed instruction
system.cpu1.op_class::InstPrefetch                  0      0.00%    100.00% # Class of executed instruction
system.cpu1.op_class::total                2349207573                       # Class of executed instruction
system.cpu2.apic_clk_domain.clock                8000                       # Clock period in ticks
system.cpu2.numCycles                      4801529862                       # number of cpu cycles simulated
system.cpu2.numWorkItemsStarted                     0                       # number of work items this cpu started
system.cpu2.numWorkItemsCompleted                   0                       # number of work items this cpu completed
system.cpu2.kern.inst.arm                           0                       # number of arm instructions executed
system.cpu2.kern.inst.quiesce                       0                       # number of quiesce instructions executed
system.cpu2.committedInsts                    4715410                       # Number of instructions committed
system.cpu2.committedOps                      9494320                       # Number of ops (including micro ops) committed
system.cpu2.num_int_alu_accesses              9323029                       # Number of integer alu accesses
system.cpu2.num_fp_alu_accesses                  1778                       # Number of float alu accesses
system.cpu2.num_func_calls                     245228                       # number of times a function call or return occured
system.cpu2.num_conditional_control_insts       816373                       # number of instructions that are conditional controls
system.cpu2.num_int_insts                     9323029                       # number of integer instructions
system.cpu2.num_fp_insts                         1778                       # number of float instructions
system.cpu2.num_int_register_reads           18446690                       # number of times the integer registers were read
system.cpu2.num_int_register_writes           7590870                       # number of times the integer registers were written
system.cpu2.num_fp_register_reads                2988                       # number of times the floating registers were read
system.cpu2.num_fp_register_writes               1416                       # number of times the floating registers were written
system.cpu2.num_cc_register_reads             6098720                       # number of times the CC registers were read
system.cpu2.num_cc_register_writes            3236319                       # number of times the CC registers were written
system.cpu2.num_mem_refs                      2111874                       # number of memory refs
system.cpu2.num_load_insts                    1368399                       # Number of load instructions
system.cpu2.num_store_insts                    743475                       # Number of store instructions
system.cpu2.num_idle_cycles              4766337547.103655                       # Number of idle cycles
system.cpu2.num_busy_cycles              35192314.896345                       # Number of busy cycles
system.cpu2.not_idle_fraction                0.007329                       # Percentage of non-idle cycles
system.cpu2.idle_fraction                    0.992671                       # Percentage of idle cycles
system.cpu2.Branches                          1107360                       # Number of branches fetched
system.cpu2.op_class::No_OpClass                74736      0.79%      0.79% # Class of executed instruction
system.cpu2.op_class::IntAlu                  7272849     76.60%     77.39% # Class of executed instruction
system.cpu2.op_class::IntMult                    8522      0.09%     77.48% # Class of executed instruction
system.cpu2.op_class::IntDiv                    25086      0.26%     77.74% # Class of executed instruction
system.cpu2.op_class::FloatAdd                   1344      0.01%     77.76% # Class of executed instruction
system.cpu2.op_class::FloatCmp                      0      0.00%     77.76% # Class of executed instruction
system.cpu2.op_class::FloatCvt                      0      0.00%     77.76% # Class of executed instruction
system.cpu2.op_class::FloatMult                     0      0.00%     77.76% # Class of executed instruction
system.cpu2.op_class::FloatDiv                      0      0.00%     77.76% # Class of executed instruction
system.cpu2.op_class::FloatSqrt                     0      0.00%     77.76% # Class of executed instruction
system.cpu2.op_class::SimdAdd                       0      0.00%     77.76% # Class of executed instruction
system.cpu2.op_class::SimdAddAcc                    0      0.00%     77.76% # Class of executed instruction
system.cpu2.op_class::SimdAlu                       0      0.00%     77.76% # Class of executed instruction
system.cpu2.op_class::SimdCmp                       0      0.00%     77.76% # Class of executed instruction
system.cpu2.op_class::SimdCvt                       0      0.00%     77.76% # Class of executed instruction
system.cpu2.op_class::SimdMisc                      0      0.00%     77.76% # Class of executed instruction
system.cpu2.op_class::SimdMult                      0      0.00%     77.76% # Class of executed instruction
system.cpu2.op_class::SimdMultAcc                   0      0.00%     77.76% # Class of executed instruction
system.cpu2.op_class::SimdShift                     0      0.00%     77.76% # Class of executed instruction
system.cpu2.op_class::SimdShiftAcc                  0      0.00%     77.76% # Class of executed instruction
system.cpu2.op_class::SimdSqrt                      0      0.00%     77.76% # Class of executed instruction
system.cpu2.op_class::SimdFloatAdd                  0      0.00%     77.76% # Class of executed instruction
system.cpu2.op_class::SimdFloatAlu                  0      0.00%     77.76% # Class of executed instruction
system.cpu2.op_class::SimdFloatCmp                  0      0.00%     77.76% # Class of executed instruction
system.cpu2.op_class::SimdFloatCvt                  0      0.00%     77.76% # Class of executed instruction
system.cpu2.op_class::SimdFloatDiv                  0      0.00%     77.76% # Class of executed instruction
system.cpu2.op_class::SimdFloatMisc                 0      0.00%     77.76% # Class of executed instruction
system.cpu2.op_class::SimdFloatMult                 0      0.00%     77.76% # Class of executed instruction
system.cpu2.op_class::SimdFloatMultAcc              0      0.00%     77.76% # Class of executed instruction
system.cpu2.op_class::SimdFloatSqrt                 0      0.00%     77.76% # Class of executed instruction
system.cpu2.op_class::MemRead                 1368399     14.41%     92.17% # Class of executed instruction
system.cpu2.op_class::MemWrite                 743475      7.83%    100.00% # Class of executed instruction
system.cpu2.op_class::IprAccess                     0      0.00%    100.00% # Class of executed instruction
system.cpu2.op_class::InstPrefetch                  0      0.00%    100.00% # Class of executed instruction
system.cpu2.op_class::total                   9494411                       # Class of executed instruction
system.cpu3.apic_clk_domain.clock                8000                       # Clock period in ticks
system.cpu3.numCycles                      4808190706                       # number of cpu cycles simulated
system.cpu3.numWorkItemsStarted                     0                       # number of work items this cpu started
system.cpu3.numWorkItemsCompleted                   0                       # number of work items this cpu completed
system.cpu3.kern.inst.arm                           0                       # number of arm instructions executed
system.cpu3.kern.inst.quiesce                       0                       # number of quiesce instructions executed
system.cpu3.committedInsts                    1909581                       # Number of instructions committed
system.cpu3.committedOps                      4082746                       # Number of ops (including micro ops) committed
system.cpu3.num_int_alu_accesses              3999637                       # Number of integer alu accesses
system.cpu3.num_fp_alu_accesses                    39                       # Number of float alu accesses
system.cpu3.num_func_calls                     108276                       # number of times a function call or return occured
system.cpu3.num_conditional_control_insts       317705                       # number of instructions that are conditional controls
system.cpu3.num_int_insts                     3999637                       # number of integer instructions
system.cpu3.num_fp_insts                           39                       # number of float instructions
system.cpu3.num_int_register_reads            7984940                       # number of times the integer registers were read
system.cpu3.num_int_register_writes           3299967                       # number of times the integer registers were written
system.cpu3.num_fp_register_reads                  63                       # number of times the floating registers were read
system.cpu3.num_fp_register_writes                 31                       # number of times the floating registers were written
system.cpu3.num_cc_register_reads             2446282                       # number of times the CC registers were read
system.cpu3.num_cc_register_writes            1251440                       # number of times the CC registers were written
system.cpu3.num_mem_refs                       925715                       # number of memory refs
system.cpu3.num_load_insts                     576051                       # Number of load instructions
system.cpu3.num_store_insts                    349664                       # Number of store instructions
system.cpu3.num_idle_cycles              4792765488.462502                       # Number of idle cycles
system.cpu3.num_busy_cycles              15425217.537497                       # Number of busy cycles
system.cpu3.not_idle_fraction                0.003208                       # Percentage of non-idle cycles
system.cpu3.idle_fraction                    0.996792                       # Percentage of idle cycles
system.cpu3.Branches                           460855                       # Number of branches fetched
system.cpu3.op_class::No_OpClass                68289      1.67%      1.67% # Class of executed instruction
system.cpu3.op_class::IntAlu                  3057168     74.88%     76.55% # Class of executed instruction
system.cpu3.op_class::IntMult                    7515      0.18%     76.74% # Class of executed instruction
system.cpu3.op_class::IntDiv                    24051      0.59%     77.33% # Class of executed instruction
system.cpu3.op_class::FloatAdd                     30      0.00%     77.33% # Class of executed instruction
system.cpu3.op_class::FloatCmp                      0      0.00%     77.33% # Class of executed instruction
system.cpu3.op_class::FloatCvt                      0      0.00%     77.33% # Class of executed instruction
system.cpu3.op_class::FloatMult                     0      0.00%     77.33% # Class of executed instruction
system.cpu3.op_class::FloatDiv                      0      0.00%     77.33% # Class of executed instruction
system.cpu3.op_class::FloatSqrt                     0      0.00%     77.33% # Class of executed instruction
system.cpu3.op_class::SimdAdd                       0      0.00%     77.33% # Class of executed instruction
system.cpu3.op_class::SimdAddAcc                    0      0.00%     77.33% # Class of executed instruction
system.cpu3.op_class::SimdAlu                       0      0.00%     77.33% # Class of executed instruction
system.cpu3.op_class::SimdCmp                       0      0.00%     77.33% # Class of executed instruction
system.cpu3.op_class::SimdCvt                       0      0.00%     77.33% # Class of executed instruction
system.cpu3.op_class::SimdMisc                      0      0.00%     77.33% # Class of executed instruction
system.cpu3.op_class::SimdMult                      0      0.00%     77.33% # Class of executed instruction
system.cpu3.op_class::SimdMultAcc                   0      0.00%     77.33% # Class of executed instruction
system.cpu3.op_class::SimdShift                     0      0.00%     77.33% # Class of executed instruction
system.cpu3.op_class::SimdShiftAcc                  0      0.00%     77.33% # Class of executed instruction
system.cpu3.op_class::SimdSqrt                      0      0.00%     77.33% # Class of executed instruction
system.cpu3.op_class::SimdFloatAdd                  0      0.00%     77.33% # Class of executed instruction
system.cpu3.op_class::SimdFloatAlu                  0      0.00%     77.33% # Class of executed instruction
system.cpu3.op_class::SimdFloatCmp                  0      0.00%     77.33% # Class of executed instruction
system.cpu3.op_class::SimdFloatCvt                  0      0.00%     77.33% # Class of executed instruction
system.cpu3.op_class::SimdFloatDiv                  0      0.00%     77.33% # Class of executed instruction
system.cpu3.op_class::SimdFloatMisc                 0      0.00%     77.33% # Class of executed instruction
system.cpu3.op_class::SimdFloatMult                 0      0.00%     77.33% # Class of executed instruction
system.cpu3.op_class::SimdFloatMultAcc              0      0.00%     77.33% # Class of executed instruction
system.cpu3.op_class::SimdFloatSqrt                 0      0.00%     77.33% # Class of executed instruction
system.cpu3.op_class::MemRead                  576051     14.11%     91.44% # Class of executed instruction
system.cpu3.op_class::MemWrite                 349664      8.56%    100.00% # Class of executed instruction
system.cpu3.op_class::IprAccess                     0      0.00%    100.00% # Class of executed instruction
system.cpu3.op_class::InstPrefetch                  0      0.00%    100.00% # Class of executed instruction
system.cpu3.op_class::total                   4082768                       # Class of executed instruction
system.iobus.trans_dist::ReadReq                  409                       # Transaction distribution
system.iobus.trans_dist::ReadResp                 409                       # Transaction distribution
system.iobus.trans_dist::WriteReq                3121                       # Transaction distribution
system.iobus.trans_dist::WriteResp               3121                       # Transaction distribution
system.iobus.trans_dist::MessageReq                58                       # Transaction distribution
system.iobus.trans_dist::MessageResp               58                       # Transaction distribution
system.iobus.pkt_count_system.pc.south_bridge.io_apic.int_master::system.ruby.l1_cntrl0.sequencer.pio-slave-port           24                       # Packet count per connected master and slave (bytes)
system.iobus.pkt_count_system.pc.south_bridge.io_apic.int_master::system.ruby.l1_cntrl1.sequencer.pio-slave-port           22                       # Packet count per connected master and slave (bytes)
system.iobus.pkt_count_system.pc.south_bridge.io_apic.int_master::system.ruby.l1_cntrl2.sequencer.pio-slave-port           22                       # Packet count per connected master and slave (bytes)
system.iobus.pkt_count_system.pc.south_bridge.io_apic.int_master::system.ruby.l1_cntrl3.sequencer.pio-slave-port           24                       # Packet count per connected master and slave (bytes)
system.iobus.pkt_count_system.pc.south_bridge.io_apic.int_master::total           92                       # Packet count per connected master and slave (bytes)
system.iobus.pkt_count_system.ruby.l1_cntrl0.sequencer.mem-master-port::system.pc.south_bridge.ide.pio          392                       # Packet count per connected master and slave (bytes)
system.iobus.pkt_count_system.ruby.l1_cntrl0.sequencer.mem-master-port::system.pc.south_bridge.io_apic.pio           16                       # Packet count per connected master and slave (bytes)
system.iobus.pkt_count_system.ruby.l1_cntrl0.sequencer.mem-master-port::system.ruby.l1_cntrl0.sequencer.pio-slave-port         1264                       # Packet count per connected master and slave (bytes)
system.iobus.pkt_count_system.ruby.l1_cntrl0.sequencer.mem-master-port::system.ruby.l1_cntrl1.sequencer.pio-slave-port            6                       # Packet count per connected master and slave (bytes)
system.iobus.pkt_count_system.ruby.l1_cntrl0.sequencer.mem-master-port::system.ruby.l1_cntrl3.sequencer.pio-slave-port            4                       # Packet count per connected master and slave (bytes)
system.iobus.pkt_count_system.ruby.l1_cntrl0.sequencer.mem-master-port::total         1682                       # Packet count per connected master and slave (bytes)
system.iobus.pkt_count_system.ruby.l1_cntrl1.sequencer.mem-master-port::system.pc.south_bridge.ide.pio          596                       # Packet count per connected master and slave (bytes)
system.iobus.pkt_count_system.ruby.l1_cntrl1.sequencer.mem-master-port::system.pc.south_bridge.io_apic.pio            8                       # Packet count per connected master and slave (bytes)
system.iobus.pkt_count_system.ruby.l1_cntrl1.sequencer.mem-master-port::system.ruby.l1_cntrl0.sequencer.pio-slave-port            4                       # Packet count per connected master and slave (bytes)
system.iobus.pkt_count_system.ruby.l1_cntrl1.sequencer.mem-master-port::system.ruby.l1_cntrl1.sequencer.pio-slave-port         1248                       # Packet count per connected master and slave (bytes)
system.iobus.pkt_count_system.ruby.l1_cntrl1.sequencer.mem-master-port::system.ruby.l1_cntrl2.sequencer.pio-slave-port            2                       # Packet count per connected master and slave (bytes)
system.iobus.pkt_count_system.ruby.l1_cntrl1.sequencer.mem-master-port::total         1858                       # Packet count per connected master and slave (bytes)
system.iobus.pkt_count_system.ruby.l1_cntrl2.sequencer.mem-master-port::system.pc.south_bridge.ide.pio          392                       # Packet count per connected master and slave (bytes)
system.iobus.pkt_count_system.ruby.l1_cntrl2.sequencer.mem-master-port::system.pc.south_bridge.io_apic.pio            6                       # Packet count per connected master and slave (bytes)
system.iobus.pkt_count_system.ruby.l1_cntrl2.sequencer.mem-master-port::system.pc.com_1.pio           22                       # Packet count per connected master and slave (bytes)
system.iobus.pkt_count_system.ruby.l1_cntrl2.sequencer.mem-master-port::system.ruby.l1_cntrl0.sequencer.pio-slave-port            2                       # Packet count per connected master and slave (bytes)
system.iobus.pkt_count_system.ruby.l1_cntrl2.sequencer.mem-master-port::system.ruby.l1_cntrl1.sequencer.pio-slave-port            2                       # Packet count per connected master and slave (bytes)
system.iobus.pkt_count_system.ruby.l1_cntrl2.sequencer.mem-master-port::system.ruby.l1_cntrl2.sequencer.pio-slave-port         1242                       # Packet count per connected master and slave (bytes)
system.iobus.pkt_count_system.ruby.l1_cntrl2.sequencer.mem-master-port::system.ruby.l1_cntrl3.sequencer.pio-slave-port            2                       # Packet count per connected master and slave (bytes)
system.iobus.pkt_count_system.ruby.l1_cntrl2.sequencer.mem-master-port::total         1668                       # Packet count per connected master and slave (bytes)
system.iobus.pkt_count_system.ruby.l1_cntrl3.sequencer.mem-master-port::system.pc.south_bridge.ide.pio          460                       # Packet count per connected master and slave (bytes)
system.iobus.pkt_count_system.ruby.l1_cntrl3.sequencer.mem-master-port::system.pc.south_bridge.io_apic.pio           14                       # Packet count per connected master and slave (bytes)
system.iobus.pkt_count_system.ruby.l1_cntrl3.sequencer.mem-master-port::system.pc.com_1.pio          162                       # Packet count per connected master and slave (bytes)
system.iobus.pkt_count_system.ruby.l1_cntrl3.sequencer.mem-master-port::system.ruby.l1_cntrl0.sequencer.pio-slave-port            2                       # Packet count per connected master and slave (bytes)
system.iobus.pkt_count_system.ruby.l1_cntrl3.sequencer.mem-master-port::system.ruby.l1_cntrl3.sequencer.pio-slave-port         1238                       # Packet count per connected master and slave (bytes)
system.iobus.pkt_count_system.ruby.l1_cntrl3.sequencer.mem-master-port::total         1876                       # Packet count per connected master and slave (bytes)
system.iobus.pkt_count::total                    7176                       # Packet count per connected master and slave (bytes)
system.iobus.pkt_size_system.pc.south_bridge.io_apic.int_master::system.ruby.l1_cntrl0.sequencer.pio-slave-port           48                       # Cumulative packet size per connected master and slave (bytes)
system.iobus.pkt_size_system.pc.south_bridge.io_apic.int_master::system.ruby.l1_cntrl1.sequencer.pio-slave-port           44                       # Cumulative packet size per connected master and slave (bytes)
system.iobus.pkt_size_system.pc.south_bridge.io_apic.int_master::system.ruby.l1_cntrl2.sequencer.pio-slave-port           44                       # Cumulative packet size per connected master and slave (bytes)
system.iobus.pkt_size_system.pc.south_bridge.io_apic.int_master::system.ruby.l1_cntrl3.sequencer.pio-slave-port           48                       # Cumulative packet size per connected master and slave (bytes)
system.iobus.pkt_size_system.pc.south_bridge.io_apic.int_master::total          184                       # Cumulative packet size per connected master and slave (bytes)
system.iobus.pkt_size_system.ruby.l1_cntrl0.sequencer.mem-master-port::system.pc.south_bridge.ide.pio          220                       # Cumulative packet size per connected master and slave (bytes)
system.iobus.pkt_size_system.ruby.l1_cntrl0.sequencer.mem-master-port::system.pc.south_bridge.io_apic.pio           32                       # Cumulative packet size per connected master and slave (bytes)
system.iobus.pkt_size_system.ruby.l1_cntrl0.sequencer.mem-master-port::system.ruby.l1_cntrl0.sequencer.pio-slave-port         2528                       # Cumulative packet size per connected master and slave (bytes)
system.iobus.pkt_size_system.ruby.l1_cntrl0.sequencer.mem-master-port::system.ruby.l1_cntrl1.sequencer.pio-slave-port           12                       # Cumulative packet size per connected master and slave (bytes)
system.iobus.pkt_size_system.ruby.l1_cntrl0.sequencer.mem-master-port::system.ruby.l1_cntrl3.sequencer.pio-slave-port            8                       # Cumulative packet size per connected master and slave (bytes)
system.iobus.pkt_size_system.ruby.l1_cntrl0.sequencer.mem-master-port::total         2800                       # Cumulative packet size per connected master and slave (bytes)
system.iobus.pkt_size_system.ruby.l1_cntrl1.sequencer.mem-master-port::system.pc.south_bridge.ide.pio          340                       # Cumulative packet size per connected master and slave (bytes)
system.iobus.pkt_size_system.ruby.l1_cntrl1.sequencer.mem-master-port::system.pc.south_bridge.io_apic.pio           16                       # Cumulative packet size per connected master and slave (bytes)
system.iobus.pkt_size_system.ruby.l1_cntrl1.sequencer.mem-master-port::system.ruby.l1_cntrl0.sequencer.pio-slave-port            8                       # Cumulative packet size per connected master and slave (bytes)
system.iobus.pkt_size_system.ruby.l1_cntrl1.sequencer.mem-master-port::system.ruby.l1_cntrl1.sequencer.pio-slave-port         2496                       # Cumulative packet size per connected master and slave (bytes)
system.iobus.pkt_size_system.ruby.l1_cntrl1.sequencer.mem-master-port::system.ruby.l1_cntrl2.sequencer.pio-slave-port            4                       # Cumulative packet size per connected master and slave (bytes)
system.iobus.pkt_size_system.ruby.l1_cntrl1.sequencer.mem-master-port::total         2864                       # Cumulative packet size per connected master and slave (bytes)
system.iobus.pkt_size_system.ruby.l1_cntrl2.sequencer.mem-master-port::system.pc.south_bridge.ide.pio          220                       # Cumulative packet size per connected master and slave (bytes)
system.iobus.pkt_size_system.ruby.l1_cntrl2.sequencer.mem-master-port::system.pc.south_bridge.io_apic.pio           12                       # Cumulative packet size per connected master and slave (bytes)
system.iobus.pkt_size_system.ruby.l1_cntrl2.sequencer.mem-master-port::system.pc.com_1.pio           11                       # Cumulative packet size per connected master and slave (bytes)
system.iobus.pkt_size_system.ruby.l1_cntrl2.sequencer.mem-master-port::system.ruby.l1_cntrl0.sequencer.pio-slave-port            4                       # Cumulative packet size per connected master and slave (bytes)
system.iobus.pkt_size_system.ruby.l1_cntrl2.sequencer.mem-master-port::system.ruby.l1_cntrl1.sequencer.pio-slave-port            4                       # Cumulative packet size per connected master and slave (bytes)
system.iobus.pkt_size_system.ruby.l1_cntrl2.sequencer.mem-master-port::system.ruby.l1_cntrl2.sequencer.pio-slave-port         2484                       # Cumulative packet size per connected master and slave (bytes)
system.iobus.pkt_size_system.ruby.l1_cntrl2.sequencer.mem-master-port::system.ruby.l1_cntrl3.sequencer.pio-slave-port            4                       # Cumulative packet size per connected master and slave (bytes)
system.iobus.pkt_size_system.ruby.l1_cntrl2.sequencer.mem-master-port::total         2739                       # Cumulative packet size per connected master and slave (bytes)
system.iobus.pkt_size_system.ruby.l1_cntrl3.sequencer.mem-master-port::system.pc.south_bridge.ide.pio          260                       # Cumulative packet size per connected master and slave (bytes)
system.iobus.pkt_size_system.ruby.l1_cntrl3.sequencer.mem-master-port::system.pc.south_bridge.io_apic.pio           28                       # Cumulative packet size per connected master and slave (bytes)
system.iobus.pkt_size_system.ruby.l1_cntrl3.sequencer.mem-master-port::system.pc.com_1.pio           81                       # Cumulative packet size per connected master and slave (bytes)
system.iobus.pkt_size_system.ruby.l1_cntrl3.sequencer.mem-master-port::system.ruby.l1_cntrl0.sequencer.pio-slave-port            4                       # Cumulative packet size per connected master and slave (bytes)
system.iobus.pkt_size_system.ruby.l1_cntrl3.sequencer.mem-master-port::system.ruby.l1_cntrl3.sequencer.pio-slave-port         2476                       # Cumulative packet size per connected master and slave (bytes)
system.iobus.pkt_size_system.ruby.l1_cntrl3.sequencer.mem-master-port::total         2849                       # Cumulative packet size per connected master and slave (bytes)
system.iobus.pkt_size::total                    11436                       # Cumulative packet size per connected master and slave (bytes)
system.iobus.reqLayer2.occupancy              1629000                       # Layer occupancy (ticks)
system.iobus.reqLayer2.utilization                0.0                       # Layer utilization (%)
system.iobus.reqLayer8.occupancy                39496                       # Layer occupancy (ticks)
system.iobus.reqLayer8.utilization                0.0                       # Layer utilization (%)
system.iobus.reqLayer12.occupancy              121000                       # Layer occupancy (ticks)
system.iobus.reqLayer12.utilization               0.0                       # Layer utilization (%)
system.iobus.reqLayer17.occupancy             1591488                       # Layer occupancy (ticks)
system.iobus.reqLayer17.utilization               0.0                       # Layer utilization (%)
system.iobus.reqLayer18.occupancy             1702960                       # Layer occupancy (ticks)
system.iobus.reqLayer18.utilization               0.0                       # Layer utilization (%)
system.iobus.reqLayer19.occupancy             1402987                       # Layer occupancy (ticks)
system.iobus.reqLayer19.utilization               0.0                       # Layer utilization (%)
system.iobus.reqLayer20.occupancy             1568990                       # Layer occupancy (ticks)
system.iobus.reqLayer20.utilization               0.0                       # Layer utilization (%)
system.iobus.respLayer0.occupancy               77960                       # Layer occupancy (ticks)
system.iobus.respLayer0.utilization               0.0                       # Layer utilization (%)
system.iobus.respLayer2.occupancy             1238500                       # Layer occupancy (ticks)
system.iobus.respLayer2.utilization               0.0                       # Layer utilization (%)
system.iobus.respLayer4.occupancy             1342000                       # Layer occupancy (ticks)
system.iobus.respLayer4.utilization               0.0                       # Layer utilization (%)
system.iobus.respLayer6.occupancy             1228500                       # Layer occupancy (ticks)
system.iobus.respLayer6.utilization               0.0                       # Layer utilization (%)
system.iobus.respLayer8.occupancy             1391000                       # Layer occupancy (ticks)
system.iobus.respLayer8.utilization               0.0                       # Layer utilization (%)
system.pc.south_bridge.ide.disks.dma_read_full_pages          356                       # Number of full page size DMA reads (not PRD).
system.pc.south_bridge.ide.disks.dma_read_bytes      1458176                       # Number of bytes transfered via DMA reads (not PRD).
system.pc.south_bridge.ide.disks.dma_read_txs          356                       # Number of DMA read transactions (not PRD).
system.pc.south_bridge.ide.disks.dma_write_full_pages            0                       # Number of full page size DMA writes.
system.pc.south_bridge.ide.disks.dma_write_bytes            0                       # Number of bytes transfered via DMA writes.
system.pc.south_bridge.ide.disks.dma_write_txs            0                       # Number of DMA write transactions.
system.ruby.clk_domain.clock                      500                       # Clock period in ticks
system.ruby.delayHist::bucket_size                  2                       # delay histogram for all message
system.ruby.delayHist::max_bucket                  19                       # delay histogram for all message
system.ruby.delayHist::samples                5473446                       # delay histogram for all message
system.ruby.delayHist::mean                  0.003805                       # delay histogram for all message
system.ruby.delayHist::stdev                 0.174180                       # delay histogram for all message
system.ruby.delayHist                    |     5470343     99.94%     99.94% |         355      0.01%     99.95% |         413      0.01%     99.96% |         660      0.01%     99.97% |        1526      0.03%    100.00% |          19      0.00%    100.00% |          17      0.00%    100.00% |          18      0.00%    100.00% |          29      0.00%    100.00% |          66      0.00%    100.00% # delay histogram for all message
system.ruby.delayHist::total                  5473446                       # delay histogram for all message
[...]
system.ruby.LD.Directory.miss_type_mach_latency_hist_seqr |     3045774     85.79%     85.79% |      225316      6.35%     92.14% |      206150      5.81%     97.95% |       36437      1.03%     98.97% |       27537      0.78%     99.75% |        7161      0.20%     99.95% |        1073      0.03%     99.98% |         676      0.02%    100.00% |          52      0.00%    100.00% |           0      0.00%    100.00%
system.ruby.LD.Directory.miss_type_mach_latency_hist_seqr::total      3550176                      
system.ruby.ST.L1Cache.miss_type_mach_latency_hist_seqr::bucket_size            8                      
system.ruby.ST.L1Cache.miss_type_mach_latency_hist_seqr::max_bucket           79                      
system.ruby.ST.L1Cache.miss_type_mach_latency_hist_seqr::samples         4953                      
system.ruby.ST.L1Cache.miss_type_mach_latency_hist_seqr::mean    48.750454                      
system.ruby.ST.L1Cache.miss_type_mach_latency_hist_seqr::gmean    48.738819                      
system.ruby.ST.L1Cache.miss_type_mach_latency_hist_seqr::stdev     1.043632                      
system.ruby.ST.L1Cache.miss_type_mach_latency_hist_seqr |           0      0.00%      0.00% |           0      0.00%      0.00% |           0      0.00%      0.00% |           0      0.00%      0.00% |           0      0.00%      0.00% |         333      6.72%      6.72% |        4620     93.28%    100.00% |           0      0.00%    100.00% |           0      0.00%    100.00% |           0      0.00%    100.00%
system.ruby.ST.L1Cache.miss_type_mach_latency_hist_seqr::total         4953                      
system.ruby.ST.Directory.miss_type_mach_latency_hist_seqr::bucket_size          128                      
system.ruby.ST.Directory.miss_type_mach_latency_hist_seqr::max_bucket         1279                      
system.ruby.ST.Directory.miss_type_mach_latency_hist_seqr::samples      1054126                      
system.ruby.ST.Directory.miss_type_mach_latency_hist_seqr::mean   125.545959                      
system.ruby.ST.Directory.miss_type_mach_latency_hist_seqr::gmean   115.181541                      
system.ruby.ST.Directory.miss_type_mach_latency_hist_seqr::stdev    75.477668                      
system.ruby.ST.Directory.miss_type_mach_latency_hist_seqr |      900624     85.44%     85.44% |       75739      7.19%     92.62% |       60911      5.78%     98.40% |        5691      0.54%     98.94% |        8131      0.77%     99.71% |        2511      0.24%     99.95% |         284      0.03%     99.98% |         221      0.02%    100.00% |          12      0.00%    100.00% |           2      0.00%    100.00%
system.ruby.ST.Directory.miss_type_mach_latency_hist_seqr::total      1054126                      
system.ruby.IFETCH.L1Cache.miss_type_mach_latency_hist_seqr::bucket_size           16                      
system.ruby.IFETCH.L1Cache.miss_type_mach_latency_hist_seqr::max_bucket          159                      
system.ruby.IFETCH.L1Cache.miss_type_mach_latency_hist_seqr::samples       896787                      
system.ruby.IFETCH.L1Cache.miss_type_mach_latency_hist_seqr::mean    45.579722                      
system.ruby.IFETCH.L1Cache.miss_type_mach_latency_hist_seqr::gmean    45.557590                      
system.ruby.IFETCH.L1Cache.miss_type_mach_latency_hist_seqr::stdev     1.460610                      
system.ruby.IFETCH.L1Cache.miss_type_mach_latency_hist_seqr |           0      0.00%      0.00% |           0      0.00%      0.00% |      771292     86.01%     86.01% |      125485     13.99%    100.00% |           2      0.00%    100.00% |           4      0.00%    100.00% |           2      0.00%    100.00% |           1      0.00%    100.00% |           0      0.00%    100.00% |           1      0.00%    100.00%
system.ruby.IFETCH.L1Cache.miss_type_mach_latency_hist_seqr::total       896787                      
system.ruby.IFETCH.Directory.miss_type_mach_latency_hist_seqr::bucket_size          128                      
system.ruby.IFETCH.Directory.miss_type_mach_latency_hist_seqr::max_bucket         1279                      
system.ruby.IFETCH.Directory.miss_type_mach_latency_hist_seqr::samples       232618                      
system.ruby.IFETCH.Directory.miss_type_mach_latency_hist_seqr::mean   127.614411                      
system.ruby.IFETCH.Directory.miss_type_mach_latency_hist_seqr::gmean   114.530548                      
system.ruby.IFETCH.Directory.miss_type_mach_latency_hist_seqr::stdev    75.574114                      
system.ruby.IFETCH.Directory.miss_type_mach_latency_hist_seqr |      174811     75.15%     75.15% |       44083     18.95%     94.10% |        9853      4.24%     98.34% |        1628      0.70%     99.04% |        1629      0.70%     99.74% |         520      0.22%     99.96% |          44      0.02%     99.98% |          49      0.02%    100.00% |           1      0.00%    100.00% |           0      0.00%    100.00%
system.ruby.IFETCH.Directory.miss_type_mach_latency_hist_seqr::total       232618                      
system.ruby.RMW_Read.L1Cache.miss_type_mach_latency_hist_seqr::bucket_size            8                      
system.ruby.RMW_Read.L1Cache.miss_type_mach_latency_hist_seqr::max_bucket           79                      
system.ruby.RMW_Read.L1Cache.miss_type_mach_latency_hist_seqr::samples         1699                      
system.ruby.RMW_Read.L1Cache.miss_type_mach_latency_hist_seqr::mean    45.246027                      
system.ruby.RMW_Read.L1Cache.miss_type_mach_latency_hist_seqr::gmean    45.236486                      
system.ruby.RMW_Read.L1Cache.miss_type_mach_latency_hist_seqr::stdev     0.953316                      
system.ruby.RMW_Read.L1Cache.miss_type_mach_latency_hist_seqr |           0      0.00%      0.00% |           0      0.00%      0.00% |           0      0.00%      0.00% |           0      0.00%      0.00% |           0      0.00%      0.00% |        1600     94.17%     94.17% |          99      5.83%    100.00% |           0      0.00%    100.00% |           0      0.00%    100.00% |           0      0.00%    100.00%
system.ruby.RMW_Read.L1Cache.miss_type_mach_latency_hist_seqr::total         1699                      
system.ruby.RMW_Read.Directory.miss_type_mach_latency_hist_seqr::bucket_size          128                      
system.ruby.RMW_Read.Directory.miss_type_mach_latency_hist_seqr::max_bucket         1279                      
system.ruby.RMW_Read.Directory.miss_type_mach_latency_hist_seqr::samples        11035                      
system.ruby.RMW_Read.Directory.miss_type_mach_latency_hist_seqr::mean   144.625555                      
system.ruby.RMW_Read.Directory.miss_type_mach_latency_hist_seqr::gmean   131.717147                      
system.ruby.RMW_Read.Directory.miss_type_mach_latency_hist_seqr::stdev    78.403445                      
system.ruby.RMW_Read.Directory.miss_type_mach_latency_hist_seqr |        6554     59.39%     59.39% |        3609     32.71%     92.10% |         666      6.04%     98.13% |          80      0.72%     98.86% |          90      0.82%     99.67% |          29      0.26%     99.94% |           4      0.04%     99.97% |           3      0.03%    100.00% |           0      0.00%    100.00% |           0      0.00%    100.00%
system.ruby.RMW_Read.Directory.miss_type_mach_latency_hist_seqr::total        11035                      
system.ruby.Locked_RMW_Read.L1Cache.miss_type_mach_latency_hist_seqr::bucket_size            8                      
system.ruby.Locked_RMW_Read.L1Cache.miss_type_mach_latency_hist_seqr::max_bucket           79                      
system.ruby.Locked_RMW_Read.L1Cache.miss_type_mach_latency_hist_seqr::samples         6985                      
system.ruby.Locked_RMW_Read.L1Cache.miss_type_mach_latency_hist_seqr::mean    45.585684                      
system.ruby.Locked_RMW_Read.L1Cache.miss_type_mach_latency_hist_seqr::gmean    45.563611                      
system.ruby.Locked_RMW_Read.L1Cache.miss_type_mach_latency_hist_seqr::stdev     1.453211                      
system.ruby.Locked_RMW_Read.L1Cache.miss_type_mach_latency_hist_seqr |           0      0.00%      0.00% |           0      0.00%      0.00% |           0      0.00%      0.00% |           0      0.00%      0.00% |           0      0.00%      0.00% |        5986     85.70%     85.70% |         996     14.26%     99.96% |           3      0.04%    100.00% |           0      0.00%    100.00% |           0      0.00%    100.00%
system.ruby.Locked_RMW_Read.L1Cache.miss_type_mach_latency_hist_seqr::total         6985                      
system.ruby.Locked_RMW_Read.Directory.miss_type_mach_latency_hist_seqr::bucket_size          128                      
system.ruby.Locked_RMW_Read.Directory.miss_type_mach_latency_hist_seqr::max_bucket         1279                      
system.ruby.Locked_RMW_Read.Directory.miss_type_mach_latency_hist_seqr::samples        23610                      
system.ruby.Locked_RMW_Read.Directory.miss_type_mach_latency_hist_seqr::mean   124.962770                      
system.ruby.Locked_RMW_Read.Directory.miss_type_mach_latency_hist_seqr::gmean   114.714497                      
system.ruby.Locked_RMW_Read.Directory.miss_type_mach_latency_hist_seqr::stdev    73.710192                      
system.ruby.Locked_RMW_Read.Directory.miss_type_mach_latency_hist_seqr |       19922     84.38%     84.38% |        1980      8.39%     92.77% |        1333      5.65%     98.41% |         145      0.61%     99.03% |         187      0.79%     99.82% |          33      0.14%     99.96% |           8      0.03%     99.99% |           2      0.01%    100.00% |           0      0.00%    100.00% |           0      0.00%    100.00%
system.ruby.Locked_RMW_Read.Directory.miss_type_mach_latency_hist_seqr::total        23610                      
system.ruby.Directory_Controller.GETX         3259191      0.00%      0.00%
system.ruby.Directory_Controller.PUTX         2653272      0.00%      0.00%
system.ruby.Directory_Controller.PUTX_NotOwner            2      0.00%      0.00%
system.ruby.Directory_Controller.DMA_READ        23010      0.00%      0.00%
system.ruby.Directory_Controller.DMA_WRITE          128      0.00%      0.00%
system.ruby.Directory_Controller.Memory_Data      2676519      0.00%      0.00%
system.ruby.Directory_Controller.Memory_Ack      2653400      0.00%      0.00%
system.ruby.Directory_Controller.I.GETX       2653568      0.00%      0.00%
system.ruby.Directory_Controller.I.DMA_READ        22951      0.00%      0.00%
system.ruby.Directory_Controller.I.DMA_WRITE          128      0.00%      0.00%
system.ruby.Directory_Controller.M.GETX        605509      0.00%      0.00%
system.ruby.Directory_Controller.M.PUTX       2653213      0.00%      0.00%
system.ruby.Directory_Controller.M.PUTX_NotOwner            2      0.00%      0.00%
system.ruby.Directory_Controller.M.DMA_READ           59      0.00%      0.00%
system.ruby.Directory_Controller.M_DRD.PUTX           59      0.00%      0.00%
system.ruby.Directory_Controller.M_DRDI.Memory_Ack           59      0.00%      0.00%
system.ruby.Directory_Controller.IM.GETX          112      0.00%      0.00%
system.ruby.Directory_Controller.IM.Memory_Data      2653568      0.00%      0.00%
system.ruby.Directory_Controller.MI.GETX            2      0.00%      0.00%
system.ruby.Directory_Controller.MI.Memory_Ack      2653213      0.00%      0.00%
system.ruby.Directory_Controller.ID.Memory_Data        22951      0.00%      0.00%
system.ruby.Directory_Controller.ID_W.Memory_Ack          128      0.00%      0.00%
system.ruby.DMA_Controller.ReadRequest   |       23010    100.00%    100.00% |           0      0.00%    100.00%
system.ruby.DMA_Controller.ReadRequest::total        23010                      
system.ruby.DMA_Controller.WriteRequest  |         128    100.00%    100.00% |           0      0.00%    100.00%
system.ruby.DMA_Controller.WriteRequest::total          128                      
system.ruby.DMA_Controller.Data          |       23010    100.00%    100.00% |           0      0.00%    100.00%
system.ruby.DMA_Controller.Data::total          23010                      
system.ruby.DMA_Controller.Ack           |         128    100.00%    100.00% |           0      0.00%    100.00%
system.ruby.DMA_Controller.Ack::total             128                      
system.ruby.DMA_Controller.READY.ReadRequest |       23010    100.00%    100.00% |           0      0.00%    100.00%
system.ruby.DMA_Controller.READY.ReadRequest::total        23010                      
system.ruby.DMA_Controller.READY.WriteRequest |         128    100.00%    100.00% |           0      0.00%    100.00%
system.ruby.DMA_Controller.READY.WriteRequest::total          128                      
system.ruby.DMA_Controller.BUSY_RD.Data  |       23010    100.00%    100.00% |           0      0.00%    100.00%
system.ruby.DMA_Controller.BUSY_RD.Data::total        23010                      
system.ruby.DMA_Controller.BUSY_WR.Ack   |         128    100.00%    100.00% |           0      0.00%    100.00%
system.ruby.DMA_Controller.BUSY_WR.Ack::total          128                      
system.ruby.L1Cache_Controller.Load      |     1171409      0.31%      0.31% |   354134296     93.50%     93.81% |    22432499      5.92%     99.73% |     1011411      0.27%    100.00%
system.ruby.L1Cache_Controller.Load::total    378749615                      
system.ruby.L1Cache_Controller.Ifetch    |     6531955      0.33%      0.33% |  1864075958     94.29%     94.62% |   101316297      5.13%     99.75% |     4952082      0.25%    100.00%
system.ruby.L1Cache_Controller.Ifetch::total   1976876292                      
system.ruby.L1Cache_Controller.Store     |      974386      1.79%      1.79% |    39868284     73.21%     75.00% |    12838869     23.58%     98.57% |      776270      1.43%    100.00%
system.ruby.L1Cache_Controller.Store::total     54457809                      
system.ruby.L1Cache_Controller.Data      |      263905      8.10%      8.10% |     2171215     66.62%     74.72% |      603090     18.50%     93.22% |      220867      6.78%    100.00%
system.ruby.L1Cache_Controller.Data::total      3259077                      
system.ruby.L1Cache_Controller.Fwd_GETX  |      171972     28.40%     28.40% |       90139     14.89%     43.29% |      164852     27.23%     70.51% |      178546     29.49%    100.00%
system.ruby.L1Cache_Controller.Fwd_GETX::total       605509                      
system.ruby.L1Cache_Controller.Inv       |          24     20.34%     20.34% |          42     35.59%     55.93% |          26     22.03%     77.97% |          26     22.03%    100.00%
system.ruby.L1Cache_Controller.Inv::total          118                      
system.ruby.L1Cache_Controller.Replacement |      107645      3.93%      3.93% |     2115319     77.24%     81.17% |      456482     16.67%     97.84% |       59077      2.16%    100.00%
system.ruby.L1Cache_Controller.Replacement::total      2738523                      
system.ruby.L1Cache_Controller.Writeback_Ack |       91502      3.45%      3.45% |     2081102     78.44%     81.88% |      438556     16.53%     98.41% |       42112      1.59%    100.00%
system.ruby.L1Cache_Controller.Writeback_Ack::total      2653272                      
system.ruby.L1Cache_Controller.Writeback_Nack |           0      0.00%      0.00% |           0      0.00%      0.00% |           1     50.00%     50.00% |           1     50.00%    100.00%
system.ruby.L1Cache_Controller.Writeback_Nack::total            2                      
system.ruby.L1Cache_Controller.I.Load    |       82240      4.08%      4.08% |     1572449     78.08%     82.16% |      308729     15.33%     97.49% |       50514      2.51%    100.00%
system.ruby.L1Cache_Controller.I.Load::total      2013932                      
system.ruby.L1Cache_Controller.I.Ifetch  |      162052     25.08%     25.08% |      118286     18.31%     43.38% |      206914     32.02%     75.40% |      158935     24.60%    100.00%
system.ruby.L1Cache_Controller.I.Ifetch::total       646187                      
system.ruby.L1Cache_Controller.I.Store   |       19613      3.27%      3.27% |      480480     80.22%     83.49% |       87447     14.60%     98.09% |       11418      1.91%    100.00%
system.ruby.L1Cache_Controller.I.Store::total       598958                      
system.ruby.L1Cache_Controller.I.Replacement |       16155     18.94%     18.94% |       34238     40.13%     59.07% |       17938     21.03%     80.10% |       16977     19.90%    100.00%
system.ruby.L1Cache_Controller.I.Replacement::total        85308                      
system.ruby.L1Cache_Controller.II.Writeback_Nack |           0      0.00%      0.00% |           0      0.00%      0.00% |           1     50.00%     50.00% |           1     50.00%    100.00%
system.ruby.L1Cache_Controller.II.Writeback_Nack::total            2                      
system.ruby.L1Cache_Controller.M.Load    |     1089169      0.29%      0.29% |   352561847     93.58%     93.87% |    22123770      5.87%     99.74% |      960897      0.26%    100.00%
system.ruby.L1Cache_Controller.M.Load::total    376735683                      
system.ruby.L1Cache_Controller.M.Ifetch  |     6369903      0.32%      0.32% |  1863957672     94.32%     94.64% |   101109383      5.12%     99.76% |     4793147      0.24%    100.00%
system.ruby.L1Cache_Controller.M.Ifetch::total   1976230105                      
system.ruby.L1Cache_Controller.M.Store   |      954773      1.77%      1.77% |    39387804     73.13%     74.90% |    12751422     23.68%     98.58% |      764852      1.42%    100.00%
system.ruby.L1Cache_Controller.M.Store::total     53858851                      
system.ruby.L1Cache_Controller.M.Fwd_GETX |      171972     28.40%     28.40% |       90139     14.89%     43.29% |      164851     27.23%     70.51% |      178545     29.49%    100.00%
system.ruby.L1Cache_Controller.M.Fwd_GETX::total       605507                      
system.ruby.L1Cache_Controller.M.Inv     |          12     20.34%     20.34% |          21     35.59%     55.93% |          13     22.03%     77.97% |          13     22.03%    100.00%
system.ruby.L1Cache_Controller.M.Inv::total           59                      
system.ruby.L1Cache_Controller.M.Replacement |       91490      3.45%      3.45% |     2081081     78.44%     81.88% |      438544     16.53%     98.41% |       42100      1.59%    100.00%
system.ruby.L1Cache_Controller.M.Replacement::total      2653215                      
system.ruby.L1Cache_Controller.MI.Fwd_GETX |           0      0.00%      0.00% |           0      0.00%      0.00% |           1     50.00%     50.00% |           1     50.00%    100.00%
system.ruby.L1Cache_Controller.MI.Fwd_GETX::total            2                      
system.ruby.L1Cache_Controller.MI.Inv    |          12     20.34%     20.34% |          21     35.59%     55.93% |          13     22.03%     77.97% |          13     22.03%    100.00%
system.ruby.L1Cache_Controller.MI.Inv::total           59                      
system.ruby.L1Cache_Controller.MI.Writeback_Ack |       91502      3.45%      3.45% |     2081102     78.44%     81.88% |      438556     16.53%     98.41% |       42112      1.59%    100.00%
system.ruby.L1Cache_Controller.MI.Writeback_Ack::total      2653272                      
system.ruby.L1Cache_Controller.IS.Data   |      244292      9.18%      9.18% |     1690735     63.56%     72.74% |      515643     19.38%     92.13% |      209449      7.87%    100.00%
system.ruby.L1Cache_Controller.IS.Data::total      2660119                      
system.ruby.L1Cache_Controller.IM.Data   |       19613      3.27%      3.27% |      480480     80.22%     83.49% |       87447     14.60%     98.09% |       11418      1.91%    100.00%
system.ruby.L1Cache_Controller.IM.Data::total       598958                      

---------- End Simulation Statistics   ----------
