
---------- Begin Simulation Statistics ----------
sim_seconds                                  3.946876                       # Number of seconds simulated
sim_ticks                                3946876262000                       # Number of ticks simulated
final_tick                               56144340351001                       # Number of ticks from beginning of simulation (restored from checkpoints and never reset)
sim_freq                                 1000000000000                       # Frequency of simulated ticks
host_inst_rate                                 154438                       # Simulator instruction rate (inst/s)
host_op_rate                                   216516                       # Simulator op (including micro ops) rate (op/s)
host_tick_rate                              270839405                       # Simulator tick rate (ticks/s)
host_mem_usage                                1816636                       # Number of bytes of host memory used
host_seconds                                 14572.76                       # Real time elapsed on the host
sim_insts                                  2250589215                       # Number of instructions simulated
sim_ops                                    3155239284                       # Number of ops (including micro ops) simulated
system.voltage_domain.voltage                       1                       # Voltage in Volts
system.clk_domain.clock                          1000                       # Clock period in ticks
system.mem_ctrls.bytes_read::ruby.dir_cntrl0    124379328                       # Number of bytes read from this memory
system.mem_ctrls.bytes_read::total          124379328                       # Number of bytes read from this memory
system.mem_ctrls.bytes_written::ruby.dir_cntrl0     62317696                       # Number of bytes written to this memory
system.mem_ctrls.bytes_written::total        62317696                       # Number of bytes written to this memory
system.mem_ctrls.num_reads::ruby.dir_cntrl0      1943427                       # Number of read requests responded to by this memory
system.mem_ctrls.num_reads::total             1943427                       # Number of read requests responded to by this memory
system.mem_ctrls.num_writes::ruby.dir_cntrl0       973714                       # Number of write requests responded to by this memory
system.mem_ctrls.num_writes::total             973714                       # Number of write requests responded to by this memory
system.mem_ctrls.bw_read::ruby.dir_cntrl0     31513359                       # Total read bandwidth from this memory (bytes/s)
system.mem_ctrls.bw_read::total              31513359                       # Total read bandwidth from this memory (bytes/s)
system.mem_ctrls.bw_write::ruby.dir_cntrl0     15789118                       # Write bandwidth from this memory (bytes/s)
system.mem_ctrls.bw_write::total             15789118                       # Write bandwidth from this memory (bytes/s)
system.mem_ctrls.bw_total::ruby.dir_cntrl0     47302477                       # Total bandwidth to/from this memory (bytes/s)
system.mem_ctrls.bw_total::total             47302477                       # Total bandwidth to/from this memory (bytes/s)
system.mem_ctrls.readReqs                     1943427                       # Number of read requests accepted
system.mem_ctrls.writeReqs                     973714                       # Number of write requests accepted
system.mem_ctrls.readBursts                   1943427                       # Number of DRAM read bursts, including those serviced by the write queue
system.mem_ctrls.writeBursts                   973714                       # Number of DRAM write bursts, including those merged in the write queue
system.mem_ctrls.bytesReadDRAM              124252672                       # Total number of bytes read from DRAM
system.mem_ctrls.bytesReadWrQ                  126656                       # Total number of bytes read from write queue
system.mem_ctrls.bytesWritten                62318144                       # Total number of bytes written to DRAM
system.mem_ctrls.bytesReadSys               124379328                       # Total read bytes from the system interface side
system.mem_ctrls.bytesWrittenSys             62317696                       # Total written bytes from the system interface side
system.mem_ctrls.servicedByWrQ                   1979                       # Number of DRAM read bursts serviced by the write queue
system.mem_ctrls.mergedWrBursts                     0                       # Number of DRAM write bursts merged with an existing one
system.mem_ctrls.neitherReadNorWriteReqs            0                       # Number of requests that are neither read nor write
system.mem_ctrls.perBankRdBursts::0            122018                       # Per bank write bursts
system.mem_ctrls.perBankRdBursts::1            124665                       # Per bank write bursts
system.mem_ctrls.perBankRdBursts::2            117088                       # Per bank write bursts
system.mem_ctrls.perBankRdBursts::3            116619                       # Per bank write bursts
system.mem_ctrls.perBankRdBursts::4            122998                       # Per bank write bursts
system.mem_ctrls.perBankRdBursts::5            122489                       # Per bank write bursts
system.mem_ctrls.perBankRdBursts::6            125741                       # Per bank write bursts
system.mem_ctrls.perBankRdBursts::7            125474                       # Per bank write bursts
system.mem_ctrls.perBankRdBursts::8            130492                       # Per bank write bursts
system.mem_ctrls.perBankRdBursts::9            122137                       # Per bank write bursts
system.mem_ctrls.perBankRdBursts::10           116716                       # Per bank write bursts
system.mem_ctrls.perBankRdBursts::11           114765                       # Per bank write bursts
system.mem_ctrls.perBankRdBursts::12           120581                       # Per bank write bursts
system.mem_ctrls.perBankRdBursts::13           120681                       # Per bank write bursts
system.mem_ctrls.perBankRdBursts::14           116697                       # Per bank write bursts
system.mem_ctrls.perBankRdBursts::15           122287                       # Per bank write bursts
system.mem_ctrls.perBankWrBursts::0             61336                       # Per bank write bursts
system.mem_ctrls.perBankWrBursts::1             66121                       # Per bank write bursts
system.mem_ctrls.perBankWrBursts::2             59333                       # Per bank write bursts
system.mem_ctrls.perBankWrBursts::3             57501                       # Per bank write bursts
system.mem_ctrls.perBankWrBursts::4             60828                       # Per bank write bursts
system.mem_ctrls.perBankWrBursts::5             60986                       # Per bank write bursts
system.mem_ctrls.perBankWrBursts::6             64695                       # Per bank write bursts
system.mem_ctrls.perBankWrBursts::7             63655                       # Per bank write bursts
system.mem_ctrls.perBankWrBursts::8             63116                       # Per bank write bursts
system.mem_ctrls.perBankWrBursts::9             60123                       # Per bank write bursts
system.mem_ctrls.perBankWrBursts::10            58138                       # Per bank write bursts
system.mem_ctrls.perBankWrBursts::11            57752                       # Per bank write bursts
system.mem_ctrls.perBankWrBursts::12            61823                       # Per bank write bursts
system.mem_ctrls.perBankWrBursts::13            59849                       # Per bank write bursts
system.mem_ctrls.perBankWrBursts::14            59048                       # Per bank write bursts
system.mem_ctrls.perBankWrBursts::15            59417                       # Per bank write bursts
system.mem_ctrls.numRdRetry                         0                       # Number of times read queue was full causing retry
system.mem_ctrls.numWrRetry                         0                       # Number of times write queue was full causing retry
system.mem_ctrls.totGap                  3946876375500                       # Total gap between requests
system.mem_ctrls.readPktSize::0                     0                       # Read request sizes (log2)
system.mem_ctrls.readPktSize::1                     0                       # Read request sizes (log2)
system.mem_ctrls.readPktSize::2                     0                       # Read request sizes (log2)
system.mem_ctrls.readPktSize::3                     0                       # Read request sizes (log2)
system.mem_ctrls.readPktSize::4                     0                       # Read request sizes (log2)
system.mem_ctrls.readPktSize::5                     0                       # Read request sizes (log2)
system.mem_ctrls.readPktSize::6               1943427                       # Read request sizes (log2)
system.mem_ctrls.writePktSize::0                    0                       # Write request sizes (log2)
system.mem_ctrls.writePktSize::1                    0                       # Write request sizes (log2)
system.mem_ctrls.writePktSize::2                    0                       # Write request sizes (log2)
system.mem_ctrls.writePktSize::3                    0                       # Write request sizes (log2)
system.mem_ctrls.writePktSize::4                    0                       # Write request sizes (log2)
system.mem_ctrls.writePktSize::5                    0                       # Write request sizes (log2)
system.mem_ctrls.writePktSize::6               973714                       # Write request sizes (log2)
system.mem_ctrls.rdQLenPdf::0                 1930239                       # What read queue length does an incoming req see
system.mem_ctrls.rdQLenPdf::1                   11155                       # What read queue length does an incoming req see
system.mem_ctrls.rdQLenPdf::2                      54                       # What read queue length does an incoming req see
system.mem_ctrls.rdQLenPdf::3                       0                       # What read queue length does an incoming req see
system.mem_ctrls.rdQLenPdf::4                       0                       # What read queue length does an incoming req see
system.mem_ctrls.rdQLenPdf::5                       0                       # What read queue length does an incoming req see
system.mem_ctrls.rdQLenPdf::6                       0                       # What read queue length does an incoming req see
system.mem_ctrls.rdQLenPdf::7                       0                       # What read queue length does an incoming req see
system.mem_ctrls.rdQLenPdf::8                       0                       # What read queue length does an incoming req see
system.mem_ctrls.rdQLenPdf::9                       0                       # What read queue length does an incoming req see
system.mem_ctrls.rdQLenPdf::10                      0                       # What read queue length does an incoming req see
system.mem_ctrls.rdQLenPdf::11                      0                       # What read queue length does an incoming req see
system.mem_ctrls.rdQLenPdf::12                      0                       # What read queue length does an incoming req see
system.mem_ctrls.rdQLenPdf::13                      0                       # What read queue length does an incoming req see
system.mem_ctrls.rdQLenPdf::14                      0                       # What read queue length does an incoming req see
system.mem_ctrls.rdQLenPdf::15                      0                       # What read queue length does an incoming req see
system.mem_ctrls.rdQLenPdf::16                      0                       # What read queue length does an incoming req see
system.mem_ctrls.rdQLenPdf::17                      0                       # What read queue length does an incoming req see
system.mem_ctrls.rdQLenPdf::18                      0                       # What read queue length does an incoming req see
system.mem_ctrls.rdQLenPdf::19                      0                       # What read queue length does an incoming req see
system.mem_ctrls.rdQLenPdf::20                      0                       # What read queue length does an incoming req see
system.mem_ctrls.rdQLenPdf::21                      0                       # What read queue length does an incoming req see
system.mem_ctrls.rdQLenPdf::22                      0                       # What read queue length does an incoming req see
system.mem_ctrls.rdQLenPdf::23                      0                       # What read queue length does an incoming req see
system.mem_ctrls.rdQLenPdf::24                      0                       # What read queue length does an incoming req see
system.mem_ctrls.rdQLenPdf::25                      0                       # What read queue length does an incoming req see
system.mem_ctrls.rdQLenPdf::26                      0                       # What read queue length does an incoming req see
system.mem_ctrls.rdQLenPdf::27                      0                       # What read queue length does an incoming req see
system.mem_ctrls.rdQLenPdf::28                      0                       # What read queue length does an incoming req see
system.mem_ctrls.rdQLenPdf::29                      0                       # What read queue length does an incoming req see
system.mem_ctrls.rdQLenPdf::30                      0                       # What read queue length does an incoming req see
system.mem_ctrls.rdQLenPdf::31                      0                       # What read queue length does an incoming req see
system.mem_ctrls.wrQLenPdf::0                       0                       # What write queue length does an incoming req see
system.mem_ctrls.wrQLenPdf::1                       0                       # What write queue length does an incoming req see
system.mem_ctrls.wrQLenPdf::2                       0                       # What write queue length does an incoming req see
system.mem_ctrls.wrQLenPdf::3                       0                       # What write queue length does an incoming req see
system.mem_ctrls.wrQLenPdf::4                       0                       # What write queue length does an incoming req see
system.mem_ctrls.wrQLenPdf::5                       0                       # What write queue length does an incoming req see
system.mem_ctrls.wrQLenPdf::6                       0                       # What write queue length does an incoming req see
system.mem_ctrls.wrQLenPdf::7                       0                       # What write queue length does an incoming req see
system.mem_ctrls.wrQLenPdf::8                       0                       # What write queue length does an incoming req see
system.mem_ctrls.wrQLenPdf::9                       0                       # What write queue length does an incoming req see
system.mem_ctrls.wrQLenPdf::10                      0                       # What write queue length does an incoming req see
system.mem_ctrls.wrQLenPdf::11                      0                       # What write queue length does an incoming req see
system.mem_ctrls.wrQLenPdf::12                      0                       # What write queue length does an incoming req see
system.mem_ctrls.wrQLenPdf::13                      0                       # What write queue length does an incoming req see
system.mem_ctrls.wrQLenPdf::14                      0                       # What write queue length does an incoming req see
system.mem_ctrls.wrQLenPdf::15                   1413                       # What write queue length does an incoming req see
system.mem_ctrls.wrQLenPdf::16                   1604                       # What write queue length does an incoming req see
system.mem_ctrls.wrQLenPdf::17                  59676                       # What write queue length does an incoming req see
system.mem_ctrls.wrQLenPdf::18                  60695                       # What write queue length does an incoming req see
system.mem_ctrls.wrQLenPdf::19                  60699                       # What write queue length does an incoming req see
system.mem_ctrls.wrQLenPdf::20                  60755                       # What write queue length does an incoming req see
system.mem_ctrls.wrQLenPdf::21                  60786                       # What write queue length does an incoming req see
system.mem_ctrls.wrQLenPdf::22                  60780                       # What write queue length does an incoming req see
system.mem_ctrls.wrQLenPdf::23                  60775                       # What write queue length does an incoming req see
system.mem_ctrls.wrQLenPdf::24                  60746                       # What write queue length does an incoming req see
system.mem_ctrls.wrQLenPdf::25                  60728                       # What write queue length does an incoming req see
system.mem_ctrls.wrQLenPdf::26                  60749                       # What write queue length does an incoming req see
system.mem_ctrls.wrQLenPdf::27                  60731                       # What write queue length does an incoming req see
system.mem_ctrls.wrQLenPdf::28                  60723                       # What write queue length does an incoming req see
system.mem_ctrls.wrQLenPdf::29                  60718                       # What write queue length does an incoming req see
system.mem_ctrls.wrQLenPdf::30                  60701                       # What write queue length does an incoming req see
system.mem_ctrls.wrQLenPdf::31                  60689                       # What write queue length does an incoming req see
system.mem_ctrls.wrQLenPdf::32                  60665                       # What write queue length does an incoming req see
system.mem_ctrls.wrQLenPdf::33                     12                       # What write queue length does an incoming req see
system.mem_ctrls.wrQLenPdf::34                      5                       # What write queue length does an incoming req see
system.mem_ctrls.wrQLenPdf::35                      4                       # What write queue length does an incoming req see
system.mem_ctrls.wrQLenPdf::36                      6                       # What write queue length does an incoming req see
system.mem_ctrls.wrQLenPdf::37                      4                       # What write queue length does an incoming req see
system.mem_ctrls.wrQLenPdf::38                      7                       # What write queue length does an incoming req see
system.mem_ctrls.wrQLenPdf::39                      5                       # What write queue length does an incoming req see
system.mem_ctrls.wrQLenPdf::40                      8                       # What write queue length does an incoming req see
system.mem_ctrls.wrQLenPdf::41                     10                       # What write queue length does an incoming req see
system.mem_ctrls.wrQLenPdf::42                      3                       # What write queue length does an incoming req see
system.mem_ctrls.wrQLenPdf::43                      6                       # What write queue length does an incoming req see
system.mem_ctrls.wrQLenPdf::44                      4                       # What write queue length does an incoming req see
system.mem_ctrls.wrQLenPdf::45                      3                       # What write queue length does an incoming req see
system.mem_ctrls.wrQLenPdf::46                      2                       # What write queue length does an incoming req see
system.mem_ctrls.wrQLenPdf::47                      2                       # What write queue length does an incoming req see
system.mem_ctrls.wrQLenPdf::48                      0                       # What write queue length does an incoming req see
system.mem_ctrls.wrQLenPdf::49                      0                       # What write queue length does an incoming req see
system.mem_ctrls.wrQLenPdf::50                      0                       # What write queue length does an incoming req see
system.mem_ctrls.wrQLenPdf::51                      0                       # What write queue length does an incoming req see
system.mem_ctrls.wrQLenPdf::52                      0                       # What write queue length does an incoming req see
system.mem_ctrls.wrQLenPdf::53                      0                       # What write queue length does an incoming req see
system.mem_ctrls.wrQLenPdf::54                      0                       # What write queue length does an incoming req see
system.mem_ctrls.wrQLenPdf::55                      0                       # What write queue length does an incoming req see
system.mem_ctrls.wrQLenPdf::56                      0                       # What write queue length does an incoming req see
system.mem_ctrls.wrQLenPdf::57                      0                       # What write queue length does an incoming req see
system.mem_ctrls.wrQLenPdf::58                      0                       # What write queue length does an incoming req see
system.mem_ctrls.wrQLenPdf::59                      0                       # What write queue length does an incoming req see
system.mem_ctrls.wrQLenPdf::60                      0                       # What write queue length does an incoming req see
system.mem_ctrls.wrQLenPdf::61                      0                       # What write queue length does an incoming req see
system.mem_ctrls.wrQLenPdf::62                      0                       # What write queue length does an incoming req see
system.mem_ctrls.wrQLenPdf::63                      0                       # What write queue length does an incoming req see
system.mem_ctrls.bytesPerActivate::samples      1688287                       # Bytes accessed per row activation
system.mem_ctrls.bytesPerActivate::mean    110.509097                       # Bytes accessed per row activation
system.mem_ctrls.bytesPerActivate::gmean    86.467482                       # Bytes accessed per row activation
system.mem_ctrls.bytesPerActivate::stdev   132.146900                       # Bytes accessed per row activation
system.mem_ctrls.bytesPerActivate::0-127      1192788     70.65%     70.65% # Bytes accessed per row activation
system.mem_ctrls.bytesPerActivate::128-255       387922     22.98%     93.63% # Bytes accessed per row activation
system.mem_ctrls.bytesPerActivate::256-383        42639      2.53%     96.15% # Bytes accessed per row activation
system.mem_ctrls.bytesPerActivate::384-511        17210      1.02%     97.17% # Bytes accessed per row activation
system.mem_ctrls.bytesPerActivate::512-639        12483      0.74%     97.91% # Bytes accessed per row activation
system.mem_ctrls.bytesPerActivate::640-767        10398      0.62%     98.53% # Bytes accessed per row activation
system.mem_ctrls.bytesPerActivate::768-895         5724      0.34%     98.87% # Bytes accessed per row activation
system.mem_ctrls.bytesPerActivate::896-1023         3759      0.22%     99.09% # Bytes accessed per row activation
system.mem_ctrls.bytesPerActivate::1024-1151        15364      0.91%    100.00% # Bytes accessed per row activation
system.mem_ctrls.bytesPerActivate::total      1688287                       # Bytes accessed per row activation
system.mem_ctrls.rdPerTurnAround::samples        60658                       # Reads before turning the bus around for writes
system.mem_ctrls.rdPerTurnAround::mean      32.007551                       # Reads before turning the bus around for writes
system.mem_ctrls.rdPerTurnAround::gmean     28.211162                       # Reads before turning the bus around for writes
system.mem_ctrls.rdPerTurnAround::stdev     29.478419                       # Reads before turning the bus around for writes
system.mem_ctrls.rdPerTurnAround::0-127         60080     99.05%     99.05% # Reads before turning the bus around for writes
system.mem_ctrls.rdPerTurnAround::128-255          485      0.80%     99.85% # Reads before turning the bus around for writes
system.mem_ctrls.rdPerTurnAround::256-383           77      0.13%     99.97% # Reads before turning the bus around for writes
system.mem_ctrls.rdPerTurnAround::384-511            4      0.01%     99.98% # Reads before turning the bus around for writes
system.mem_ctrls.rdPerTurnAround::512-639            3      0.00%     99.99% # Reads before turning the bus around for writes
system.mem_ctrls.rdPerTurnAround::640-767            4      0.01%     99.99% # Reads before turning the bus around for writes
system.mem_ctrls.rdPerTurnAround::896-1023            1      0.00%     99.99% # Reads before turning the bus around for writes
system.mem_ctrls.rdPerTurnAround::1024-1151            1      0.00%    100.00% # Reads before turning the bus around for writes
system.mem_ctrls.rdPerTurnAround::1920-2047            1      0.00%    100.00% # Reads before turning the bus around for writes
system.mem_ctrls.rdPerTurnAround::2688-2815            1      0.00%    100.00% # Reads before turning the bus around for writes
system.mem_ctrls.rdPerTurnAround::2816-2943            1      0.00%    100.00% # Reads before turning the bus around for writes
system.mem_ctrls.rdPerTurnAround::total         60658                       # Reads before turning the bus around for writes
system.mem_ctrls.wrPerTurnAround::samples        60658                       # Writes before turning the bus around for reads
system.mem_ctrls.wrPerTurnAround::mean      16.052639                       # Writes before turning the bus around for reads
system.mem_ctrls.wrPerTurnAround::gmean     16.049687                       # Writes before turning the bus around for reads
system.mem_ctrls.wrPerTurnAround::stdev      0.320042                       # Writes before turning the bus around for reads
system.mem_ctrls.wrPerTurnAround::16            58998     97.26%     97.26% # Writes before turning the bus around for reads
system.mem_ctrls.wrPerTurnAround::17              170      0.28%     97.54% # Writes before turning the bus around for reads
system.mem_ctrls.wrPerTurnAround::18             1460      2.41%     99.95% # Writes before turning the bus around for reads
system.mem_ctrls.wrPerTurnAround::19               21      0.03%     99.99% # Writes before turning the bus around for reads
system.mem_ctrls.wrPerTurnAround::20                6      0.01%    100.00% # Writes before turning the bus around for reads
system.mem_ctrls.wrPerTurnAround::21                2      0.00%    100.00% # Writes before turning the bus around for reads
system.mem_ctrls.wrPerTurnAround::22                1      0.00%    100.00% # Writes before turning the bus around for reads
system.mem_ctrls.wrPerTurnAround::total         60658                       # Writes before turning the bus around for reads
system.mem_ctrls.totQLat                  33224607754                       # Total ticks spent queuing
system.mem_ctrls.totMemAccLat             69626757754                       # Total ticks spent from burst creation until serviced by the DRAM
system.mem_ctrls.totBusLat                 9707240000                       # Total ticks spent in databus transfers
system.mem_ctrls.avgQLat                     17113.31                       # Average queueing delay per DRAM burst
system.mem_ctrls.avgBusLat                    5000.00                       # Average bus latency per DRAM burst
system.mem_ctrls.avgMemAccLat                35863.31                       # Average memory access latency per DRAM burst
system.mem_ctrls.avgRdBW                        31.48                       # Average DRAM read bandwidth in MiByte/s
system.mem_ctrls.avgWrBW                        15.79                       # Average achieved write bandwidth in MiByte/s
system.mem_ctrls.avgRdBWSys                     31.51                       # Average system read bandwidth in MiByte/s
system.mem_ctrls.avgWrBWSys                     15.79                       # Average system write bandwidth in MiByte/s
system.mem_ctrls.peakBW                      12800.00                       # Theoretical peak bandwidth in MiByte/s
system.mem_ctrls.busUtil                         0.37                       # Data bus utilization in percentage
system.mem_ctrls.busUtilRead                     0.25                       # Data bus utilization in percentage for reads
system.mem_ctrls.busUtilWrite                    0.12                       # Data bus utilization in percentage for writes
system.mem_ctrls.avgRdQLen                       1.00                       # Average read queue length when enqueuing
system.mem_ctrls.avgWrQLen                      25.44                       # Average write queue length when enqueuing
system.mem_ctrls.readRowHits                   953638                       # Number of row buffer hits during reads
system.mem_ctrls.writeRowHits                  273245                       # Number of row buffer hits during writes
system.mem_ctrls.readRowHitRate                 49.12                       # Row buffer hit rate for reads
system.mem_ctrls.writeRowHitRate                28.06                       # Row buffer hit rate for writes
system.mem_ctrls.avgGap                    1352994.72                       # Average gap between requests
system.mem_ctrls.pageHitRate                    42.09                       # Row buffer hit rate, read and write combined
system.mem_ctrls_0.actEnergy               6465788280                       # Energy for activate commands per rank (pJ)
system.mem_ctrls_0.preEnergy               3527959875                       # Energy for precharge commands per rank (pJ)
system.mem_ctrls_0.readEnergy              7685706600                       # Energy for read commands per rank (pJ)
system.mem_ctrls_0.writeEnergy             3206887200                       # Energy for write commands per rank (pJ)
system.mem_ctrls_0.refreshEnergy         258021984480                       # Energy for refresh commands per rank (pJ)
system.mem_ctrls_0.actBackEnergy         499829568885                       # Energy for active background per rank (pJ)
system.mem_ctrls_0.preBackEnergy         1931802902250                       # Energy for precharge background per rank (pJ)
system.mem_ctrls_0.totalEnergy           2710540797570                       # Total energy per rank (pJ)
system.mem_ctrls_0.averagePower            686.140514                       # Core power per rank (mW)
system.mem_ctrls_0.memoryStateTime::IDLE 3209911335250                       # Time in different power states
system.mem_ctrls_0.memoryStateTime::REF  131795040000                       # Time in different power states
system.mem_ctrls_0.memoryStateTime::PRE_PDN            0                       # Time in different power states
system.mem_ctrls_0.memoryStateTime::ACT  605175315750                       # Time in different power states
system.mem_ctrls_0.memoryStateTime::ACT_PDN            0                       # Time in different power states
system.mem_ctrls_1.actEnergy               6333231240                       # Energy for activate commands per rank (pJ)
system.mem_ctrls_1.preEnergy               3455632125                       # Energy for precharge commands per rank (pJ)
system.mem_ctrls_1.readEnergy              7583035200                       # Energy for read commands per rank (pJ)
system.mem_ctrls_1.writeEnergy             3109052160                       # Energy for write commands per rank (pJ)
system.mem_ctrls_1.refreshEnergy         258021984480                       # Energy for refresh commands per rank (pJ)
system.mem_ctrls_1.actBackEnergy         496160692065                       # Energy for active background per rank (pJ)
system.mem_ctrls_1.preBackEnergy         1935021215250                       # Energy for precharge background per rank (pJ)
system.mem_ctrls_1.totalEnergy           2709684842520                       # Total energy per rank (pJ)
system.mem_ctrls_1.averagePower            685.923839                       # Core power per rank (mW)
system.mem_ctrls_1.memoryStateTime::IDLE 3215113822500                       # Time in different power states
system.mem_ctrls_1.memoryStateTime::REF  131795040000                       # Time in different power states
system.mem_ctrls_1.memoryStateTime::PRE_PDN            0                       # Time in different power states
system.mem_ctrls_1.memoryStateTime::ACT  599972407500                       # Time in different power states
system.mem_ctrls_1.memoryStateTime::ACT_PDN            0                       # Time in different power states
system.cpu_voltage_domain.voltage                   1                       # Voltage in Volts
system.cpu_clk_domain.clock                       500                       # Clock period in ticks
system.cpu0.apic_clk_domain.clock                8000                       # Clock period in ticks
system.cpu0.numCycles                      7891691112                       # number of cpu cycles simulated
system.cpu0.numWorkItemsStarted                     0                       # number of work items this cpu started
system.cpu0.numWorkItemsCompleted                   0                       # number of work items this cpu completed
system.cpu0.kern.inst.arm                           0                       # number of arm instructions executed
system.cpu0.kern.inst.quiesce                       0                       # number of quiesce instructions executed
system.cpu0.committedInsts                    4137930                       # Number of instructions committed
system.cpu0.committedOps                      8718988                       # Number of ops (including micro ops) committed
system.cpu0.num_int_alu_accesses              8545254                       # Number of integer alu accesses
system.cpu0.num_fp_alu_accesses                  1814                       # Number of float alu accesses
system.cpu0.num_func_calls                     240482                       # number of times a function call or return occured
system.cpu0.num_conditional_control_insts       621487                       # number of instructions that are conditional controls
system.cpu0.num_int_insts                     8545254                       # number of integer instructions
system.cpu0.num_fp_insts                         1814                       # number of float instructions
system.cpu0.num_int_register_reads           17313984                       # number of times the integer registers were read
system.cpu0.num_int_register_writes           7042462                       # number of times the integer registers were written
system.cpu0.num_fp_register_reads                3048                       # number of times the floating registers were read
system.cpu0.num_fp_register_writes               1440                       # number of times the floating registers were written
system.cpu0.num_cc_register_reads             4949519                       # number of times the CC registers were read
system.cpu0.num_cc_register_writes            2718507                       # number of times the CC registers were written
system.cpu0.num_mem_refs                      2027686                       # number of memory refs
system.cpu0.num_load_insts                    1257879                       # Number of load instructions
system.cpu0.num_store_insts                    769807                       # Number of store instructions
system.cpu0.num_idle_cycles              7871224649.107372                       # Number of idle cycles
system.cpu0.num_busy_cycles              20466462.892628                       # Number of busy cycles
system.cpu0.not_idle_fraction                0.002593                       # Percentage of non-idle cycles
system.cpu0.idle_fraction                    0.997407                       # Percentage of idle cycles
system.cpu0.Branches                           933896                       # Number of branches fetched
system.cpu0.op_class::No_OpClass               128909      1.48%      1.48% # Class of executed instruction
system.cpu0.op_class::IntAlu                  6504309     74.60%     76.08% # Class of executed instruction
system.cpu0.op_class::IntMult                   14346      0.16%     76.24% # Class of executed instruction
system.cpu0.op_class::IntDiv                    42460      0.49%     76.73% # Class of executed instruction
system.cpu0.op_class::FloatAdd                   1368      0.02%     76.74% # Class of executed instruction
system.cpu0.op_class::FloatCmp                      0      0.00%     76.74% # Class of executed instruction
system.cpu0.op_class::FloatCvt                      0      0.00%     76.74% # Class of executed instruction
system.cpu0.op_class::FloatMult                     0      0.00%     76.74% # Class of executed instruction
system.cpu0.op_class::FloatDiv                      0      0.00%     76.74% # Class of executed instruction
system.cpu0.op_class::FloatSqrt                     0      0.00%     76.74% # Class of executed instruction
system.cpu0.op_class::SimdAdd                       0      0.00%     76.74% # Class of executed instruction
system.cpu0.op_class::SimdAddAcc                    0      0.00%     76.74% # Class of executed instruction
system.cpu0.op_class::SimdAlu                       0      0.00%     76.74% # Class of executed instruction
system.cpu0.op_class::SimdCmp                       0      0.00%     76.74% # Class of executed instruction
system.cpu0.op_class::SimdCvt                       0      0.00%     76.74% # Class of executed instruction
system.cpu0.op_class::SimdMisc                      0      0.00%     76.74% # Class of executed instruction
system.cpu0.op_class::SimdMult                      0      0.00%     76.74% # Class of executed instruction
system.cpu0.op_class::SimdMultAcc                   0      0.00%     76.74% # Class of executed instruction
system.cpu0.op_class::SimdShift                     0      0.00%     76.74% # Class of executed instruction
system.cpu0.op_class::SimdShiftAcc                  0      0.00%     76.74% # Class of executed instruction
system.cpu0.op_class::SimdSqrt                      0      0.00%     76.74% # Class of executed instruction
system.cpu0.op_class::SimdFloatAdd                  0      0.00%     76.74% # Class of executed instruction
system.cpu0.op_class::SimdFloatAlu                  0      0.00%     76.74% # Class of executed instruction
system.cpu0.op_class::SimdFloatCmp                  0      0.00%     76.74% # Class of executed instruction
system.cpu0.op_class::SimdFloatCvt                  0      0.00%     76.74% # Class of executed instruction
system.cpu0.op_class::SimdFloatDiv                  0      0.00%     76.74% # Class of executed instruction
system.cpu0.op_class::SimdFloatMisc                 0      0.00%     76.74% # Class of executed instruction
system.cpu0.op_class::SimdFloatMult                 0      0.00%     76.74% # Class of executed instruction
system.cpu0.op_class::SimdFloatMultAcc              0      0.00%     76.74% # Class of executed instruction
system.cpu0.op_class::SimdFloatSqrt                 0      0.00%     76.74% # Class of executed instruction
system.cpu0.op_class::MemRead                 1257879     14.43%     91.17% # Class of executed instruction
system.cpu0.op_class::MemWrite                 769807      8.83%    100.00% # Class of executed instruction
system.cpu0.op_class::IprAccess                     0      0.00%    100.00% # Class of executed instruction
system.cpu0.op_class::InstPrefetch                  0      0.00%    100.00% # Class of executed instruction
system.cpu0.op_class::total                   8719078                       # Class of executed instruction
system.cpu1.apic_clk_domain.clock                8000                       # Clock period in ticks
system.cpu1.numCycles                      7897046885                       # number of cpu cycles simulated
system.cpu1.numWorkItemsStarted                     0                       # number of work items this cpu started
system.cpu1.numWorkItemsCompleted                   0                       # number of work items this cpu completed
system.cpu1.kern.inst.arm                           0                       # number of arm instructions executed
system.cpu1.kern.inst.quiesce                       0                       # number of quiesce instructions executed
system.cpu1.committedInsts                    2797370                       # Number of instructions committed
system.cpu1.committedOps                      6011456                       # Number of ops (including micro ops) committed
system.cpu1.num_int_alu_accesses              5881436                       # Number of integer alu accesses
system.cpu1.num_fp_alu_accesses                   154                       # Number of float alu accesses
system.cpu1.num_func_calls                     166899                       # number of times a function call or return occured
system.cpu1.num_conditional_control_insts       419098                       # number of instructions that are conditional controls
system.cpu1.num_int_insts                     5881436                       # number of integer instructions
system.cpu1.num_fp_insts                          154                       # number of float instructions
system.cpu1.num_int_register_reads           11963504                       # number of times the integer registers were read
system.cpu1.num_int_register_writes           4874541                       # number of times the integer registers were written
system.cpu1.num_fp_register_reads                 258                       # number of times the floating registers were read
system.cpu1.num_fp_register_writes                126                       # number of times the floating registers were written
system.cpu1.num_cc_register_reads             3333186                       # number of times the CC registers were read
system.cpu1.num_cc_register_writes            1772283                       # number of times the CC registers were written
system.cpu1.num_mem_refs                      1444716                       # number of memory refs
system.cpu1.num_load_insts                     898645                       # Number of load instructions
system.cpu1.num_store_insts                    546071                       # Number of store instructions
system.cpu1.num_idle_cycles              7881872992.005231                       # Number of idle cycles
system.cpu1.num_busy_cycles              15173892.994769                       # Number of busy cycles
system.cpu1.not_idle_fraction                0.001921                       # Percentage of non-idle cycles
system.cpu1.idle_fraction                    0.998079                       # Percentage of idle cycles
system.cpu1.Branches                           639876                       # Number of branches fetched
system.cpu1.op_class::No_OpClass               108390      1.80%      1.80% # Class of executed instruction
system.cpu1.op_class::IntAlu                  4405106     73.28%     75.08% # Class of executed instruction
system.cpu1.op_class::IntMult                   15158      0.25%     75.33% # Class of executed instruction
system.cpu1.op_class::IntDiv                    37989      0.63%     75.97% # Class of executed instruction
system.cpu1.op_class::FloatAdd                    120      0.00%     75.97% # Class of executed instruction
system.cpu1.op_class::FloatCmp                      0      0.00%     75.97% # Class of executed instruction
system.cpu1.op_class::FloatCvt                      0      0.00%     75.97% # Class of executed instruction
system.cpu1.op_class::FloatMult                     0      0.00%     75.97% # Class of executed instruction
system.cpu1.op_class::FloatDiv                      0      0.00%     75.97% # Class of executed instruction
system.cpu1.op_class::FloatSqrt                     0      0.00%     75.97% # Class of executed instruction
system.cpu1.op_class::SimdAdd                       0      0.00%     75.97% # Class of executed instruction
system.cpu1.op_class::SimdAddAcc                    0      0.00%     75.97% # Class of executed instruction
system.cpu1.op_class::SimdAlu                       0      0.00%     75.97% # Class of executed instruction
system.cpu1.op_class::SimdCmp                       0      0.00%     75.97% # Class of executed instruction
system.cpu1.op_class::SimdCvt                       0      0.00%     75.97% # Class of executed instruction
system.cpu1.op_class::SimdMisc                      0      0.00%     75.97% # Class of executed instruction
system.cpu1.op_class::SimdMult                      0      0.00%     75.97% # Class of executed instruction
system.cpu1.op_class::SimdMultAcc                   0      0.00%     75.97% # Class of executed instruction
system.cpu1.op_class::SimdShift                     0      0.00%     75.97% # Class of executed instruction
system.cpu1.op_class::SimdShiftAcc                  0      0.00%     75.97% # Class of executed instruction
system.cpu1.op_class::SimdSqrt                      0      0.00%     75.97% # Class of executed instruction
system.cpu1.op_class::SimdFloatAdd                  0      0.00%     75.97% # Class of executed instruction
system.cpu1.op_class::SimdFloatAlu                  0      0.00%     75.97% # Class of executed instruction
system.cpu1.op_class::SimdFloatCmp                  0      0.00%     75.97% # Class of executed instruction
system.cpu1.op_class::SimdFloatCvt                  0      0.00%     75.97% # Class of executed instruction
system.cpu1.op_class::SimdFloatDiv                  0      0.00%     75.97% # Class of executed instruction
system.cpu1.op_class::SimdFloatMisc                 0      0.00%     75.97% # Class of executed instruction
system.cpu1.op_class::SimdFloatMult                 0      0.00%     75.97% # Class of executed instruction
system.cpu1.op_class::SimdFloatMultAcc              0      0.00%     75.97% # Class of executed instruction
system.cpu1.op_class::SimdFloatSqrt                 0      0.00%     75.97% # Class of executed instruction
system.cpu1.op_class::MemRead                  898645     14.95%     90.92% # Class of executed instruction
system.cpu1.op_class::MemWrite                 546071      9.08%    100.00% # Class of executed instruction
system.cpu1.op_class::IprAccess                     0      0.00%    100.00% # Class of executed instruction
system.cpu1.op_class::InstPrefetch                  0      0.00%    100.00% # Class of executed instruction
system.cpu1.op_class::total                   6011479                       # Class of executed instruction
system.cpu2.apic_clk_domain.clock                8000                       # Clock period in ticks
system.cpu2.numCycles                      7895685623                       # number of cpu cycles simulated
system.cpu2.numWorkItemsStarted                     0                       # number of work items this cpu started
system.cpu2.numWorkItemsCompleted                   0                       # number of work items this cpu completed
system.cpu2.kern.inst.arm                           0                       # number of arm instructions executed
system.cpu2.kern.inst.quiesce                       0                       # number of quiesce instructions executed
system.cpu2.committedInsts                 2239443216                       # Number of instructions committed
system.cpu2.committedOps                   3131851640                       # Number of ops (including micro ops) committed
system.cpu2.num_int_alu_accesses           1364897046                       # Number of integer alu accesses
system.cpu2.num_fp_alu_accesses            2127680264                       # Number of float alu accesses
system.cpu2.num_func_calls                    4833169                       # number of times a function call or return occured
system.cpu2.num_conditional_control_insts    125338554                       # number of instructions that are conditional controls
system.cpu2.num_int_insts                  1364897046                       # number of integer instructions
system.cpu2.num_fp_insts                   2127680264                       # number of float instructions
system.cpu2.num_int_register_reads         2745304705                       # number of times the integer registers were read
system.cpu2.num_int_register_writes         828394143                       # number of times the integer registers were written
system.cpu2.num_fp_register_reads          4601234004                       # number of times the floating registers were read
system.cpu2.num_fp_register_writes         2077617833                       # number of times the floating registers were written
system.cpu2.num_cc_register_reads           735873007                       # number of times the CC registers were read
system.cpu2.num_cc_register_writes          430121666                       # number of times the CC registers were written
system.cpu2.num_mem_refs                    408307538                       # number of memory refs
system.cpu2.num_load_insts                  353595448                       # Number of load instructions
system.cpu2.num_store_insts                  54712090                       # Number of store instructions
system.cpu2.num_idle_cycles              5138234.990958                       # Number of idle cycles
system.cpu2.num_busy_cycles              7890547388.009042                       # Number of busy cycles
system.cpu2.not_idle_fraction                0.999349                       # Percentage of non-idle cycles
system.cpu2.idle_fraction                    0.000651                       # Percentage of idle cycles
system.cpu2.Branches                        163299875                       # Number of branches fetched
system.cpu2.op_class::No_OpClass              2281812      0.07%      0.07% # Class of executed instruction
system.cpu2.op_class::IntAlu               1676596965     53.53%     53.61% # Class of executed instruction
system.cpu2.op_class::IntMult                   79014      0.00%     53.61% # Class of executed instruction
system.cpu2.op_class::IntDiv                    99321      0.00%     53.61% # Class of executed instruction
system.cpu2.op_class::FloatAdd             1044495651     33.35%     86.96% # Class of executed instruction
system.cpu2.op_class::FloatCmp                      0      0.00%     86.96% # Class of executed instruction
system.cpu2.op_class::FloatCvt                      0      0.00%     86.96% # Class of executed instruction
system.cpu2.op_class::FloatMult                     0      0.00%     86.96% # Class of executed instruction
system.cpu2.op_class::FloatDiv                      0      0.00%     86.96% # Class of executed instruction
system.cpu2.op_class::FloatSqrt                     0      0.00%     86.96% # Class of executed instruction
system.cpu2.op_class::SimdAdd                       0      0.00%     86.96% # Class of executed instruction
system.cpu2.op_class::SimdAddAcc                    0      0.00%     86.96% # Class of executed instruction
system.cpu2.op_class::SimdAlu                       0      0.00%     86.96% # Class of executed instruction
system.cpu2.op_class::SimdCmp                       0      0.00%     86.96% # Class of executed instruction
system.cpu2.op_class::SimdCvt                       0      0.00%     86.96% # Class of executed instruction
system.cpu2.op_class::SimdMisc                      0      0.00%     86.96% # Class of executed instruction
system.cpu2.op_class::SimdMult                      0      0.00%     86.96% # Class of executed instruction
system.cpu2.op_class::SimdMultAcc                   0      0.00%     86.96% # Class of executed instruction
system.cpu2.op_class::SimdShift                     0      0.00%     86.96% # Class of executed instruction
system.cpu2.op_class::SimdShiftAcc                  0      0.00%     86.96% # Class of executed instruction
system.cpu2.op_class::SimdSqrt                      0      0.00%     86.96% # Class of executed instruction
system.cpu2.op_class::SimdFloatAdd                  0      0.00%     86.96% # Class of executed instruction
system.cpu2.op_class::SimdFloatAlu                  0      0.00%     86.96% # Class of executed instruction
system.cpu2.op_class::SimdFloatCmp                  0      0.00%     86.96% # Class of executed instruction
system.cpu2.op_class::SimdFloatCvt                  0      0.00%     86.96% # Class of executed instruction
system.cpu2.op_class::SimdFloatDiv                  0      0.00%     86.96% # Class of executed instruction
system.cpu2.op_class::SimdFloatMisc                 0      0.00%     86.96% # Class of executed instruction
system.cpu2.op_class::SimdFloatMult                 0      0.00%     86.96% # Class of executed instruction
system.cpu2.op_class::SimdFloatMultAcc              0      0.00%     86.96% # Class of executed instruction
system.cpu2.op_class::SimdFloatSqrt                 0      0.00%     86.96% # Class of executed instruction
system.cpu2.op_class::MemRead               353595448     11.29%     98.25% # Class of executed instruction
system.cpu2.op_class::MemWrite               54712090      1.75%    100.00% # Class of executed instruction
system.cpu2.op_class::IprAccess                     0      0.00%    100.00% # Class of executed instruction
system.cpu2.op_class::InstPrefetch                  0      0.00%    100.00% # Class of executed instruction
system.cpu2.op_class::total                3131860301                       # Class of executed instruction
system.cpu3.apic_clk_domain.clock                8000                       # Clock period in ticks
system.cpu3.numCycles                      7892087588                       # number of cpu cycles simulated
system.cpu3.numWorkItemsStarted                     0                       # number of work items this cpu started
system.cpu3.numWorkItemsCompleted                   0                       # number of work items this cpu completed
system.cpu3.kern.inst.arm                           0                       # number of arm instructions executed
system.cpu3.kern.inst.quiesce                       0                       # number of quiesce instructions executed
system.cpu3.committedInsts                    2808534                       # Number of instructions committed
system.cpu3.committedOps                      6064808                       # Number of ops (including micro ops) committed
system.cpu3.num_int_alu_accesses              5930542                       # Number of integer alu accesses
system.cpu3.num_fp_alu_accesses                     0                       # Number of float alu accesses
system.cpu3.num_func_calls                     167406                       # number of times a function call or return occured
system.cpu3.num_conditional_control_insts       425676                       # number of instructions that are conditional controls
system.cpu3.num_int_insts                     5930542                       # number of integer instructions
system.cpu3.num_fp_insts                            0                       # number of float instructions
system.cpu3.num_int_register_reads           12057486                       # number of times the integer registers were read
system.cpu3.num_int_register_writes           4925318                       # number of times the integer registers were written
system.cpu3.num_fp_register_reads                   0                       # number of times the floating registers were read
system.cpu3.num_fp_register_writes                  0                       # number of times the floating registers were written
system.cpu3.num_cc_register_reads             3411228                       # number of times the CC registers were read
system.cpu3.num_cc_register_writes            1791552                       # number of times the CC registers were written
system.cpu3.num_mem_refs                      1442444                       # number of memory refs
system.cpu3.num_load_insts                     896786                       # Number of load instructions
system.cpu3.num_store_insts                    545658                       # Number of store instructions
system.cpu3.num_idle_cycles              7878019043.937855                       # Number of idle cycles
system.cpu3.num_busy_cycles              14068544.062145                       # Number of busy cycles
system.cpu3.not_idle_fraction                0.001783                       # Percentage of non-idle cycles
system.cpu3.idle_fraction                    0.998217                       # Percentage of idle cycles
system.cpu3.Branches                           647737                       # Number of branches fetched
system.cpu3.op_class::No_OpClass               114700      1.89%      1.89% # Class of executed instruction
system.cpu3.op_class::IntAlu                  4454010     73.44%     75.33% # Class of executed instruction
system.cpu3.op_class::IntMult                   12231      0.20%     75.53% # Class of executed instruction
system.cpu3.op_class::IntDiv                    41426      0.68%     76.22% # Class of executed instruction
system.cpu3.op_class::FloatAdd                      0      0.00%     76.22% # Class of executed instruction
system.cpu3.op_class::FloatCmp                      0      0.00%     76.22% # Class of executed instruction
system.cpu3.op_class::FloatCvt                      0      0.00%     76.22% # Class of executed instruction
system.cpu3.op_class::FloatMult                     0      0.00%     76.22% # Class of executed instruction
system.cpu3.op_class::FloatDiv                      0      0.00%     76.22% # Class of executed instruction
system.cpu3.op_class::FloatSqrt                     0      0.00%     76.22% # Class of executed instruction
system.cpu3.op_class::SimdAdd                       0      0.00%     76.22% # Class of executed instruction
system.cpu3.op_class::SimdAddAcc                    0      0.00%     76.22% # Class of executed instruction
system.cpu3.op_class::SimdAlu                       0      0.00%     76.22% # Class of executed instruction
system.cpu3.op_class::SimdCmp                       0      0.00%     76.22% # Class of executed instruction
system.cpu3.op_class::SimdCvt                       0      0.00%     76.22% # Class of executed instruction
system.cpu3.op_class::SimdMisc                      0      0.00%     76.22% # Class of executed instruction
system.cpu3.op_class::SimdMult                      0      0.00%     76.22% # Class of executed instruction
system.cpu3.op_class::SimdMultAcc                   0      0.00%     76.22% # Class of executed instruction
system.cpu3.op_class::SimdShift                     0      0.00%     76.22% # Class of executed instruction
system.cpu3.op_class::SimdShiftAcc                  0      0.00%     76.22% # Class of executed instruction
system.cpu3.op_class::SimdSqrt                      0      0.00%     76.22% # Class of executed instruction
system.cpu3.op_class::SimdFloatAdd                  0      0.00%     76.22% # Class of executed instruction
system.cpu3.op_class::SimdFloatAlu                  0      0.00%     76.22% # Class of executed instruction
system.cpu3.op_class::SimdFloatCmp                  0      0.00%     76.22% # Class of executed instruction
system.cpu3.op_class::SimdFloatCvt                  0      0.00%     76.22% # Class of executed instruction
system.cpu3.op_class::SimdFloatDiv                  0      0.00%     76.22% # Class of executed instruction
system.cpu3.op_class::SimdFloatMisc                 0      0.00%     76.22% # Class of executed instruction
system.cpu3.op_class::SimdFloatMult                 0      0.00%     76.22% # Class of executed instruction
system.cpu3.op_class::SimdFloatMultAcc              0      0.00%     76.22% # Class of executed instruction
system.cpu3.op_class::SimdFloatSqrt                 0      0.00%     76.22% # Class of executed instruction
system.cpu3.op_class::MemRead                  896786     14.79%     91.00% # Class of executed instruction
system.cpu3.op_class::MemWrite                 545658      9.00%    100.00% # Class of executed instruction
system.cpu3.op_class::IprAccess                     0      0.00%    100.00% # Class of executed instruction
system.cpu3.op_class::InstPrefetch                  0      0.00%    100.00% # Class of executed instruction
system.cpu3.op_class::total                   6064811                       # Class of executed instruction
system.iobus.trans_dist::ReadReq                  208                       # Transaction distribution
system.iobus.trans_dist::ReadResp                 208                       # Transaction distribution
system.iobus.trans_dist::WriteReq                4103                       # Transaction distribution
system.iobus.trans_dist::WriteResp               4103                       # Transaction distribution
system.iobus.trans_dist::MessageReq                23                       # Transaction distribution
system.iobus.trans_dist::MessageResp               23                       # Transaction distribution
system.iobus.pkt_count_system.pc.south_bridge.io_apic.int_master::system.ruby.l1_cntrl0.sequencer.pio-slave-port            6                       # Packet count per connected master and slave (bytes)
system.iobus.pkt_count_system.pc.south_bridge.io_apic.int_master::system.ruby.l1_cntrl1.sequencer.pio-slave-port            6                       # Packet count per connected master and slave (bytes)
system.iobus.pkt_count_system.pc.south_bridge.io_apic.int_master::system.ruby.l1_cntrl2.sequencer.pio-slave-port            6                       # Packet count per connected master and slave (bytes)
system.iobus.pkt_count_system.pc.south_bridge.io_apic.int_master::system.ruby.l1_cntrl3.sequencer.pio-slave-port            8                       # Packet count per connected master and slave (bytes)
system.iobus.pkt_count_system.pc.south_bridge.io_apic.int_master::total           26                       # Packet count per connected master and slave (bytes)
system.iobus.pkt_count_system.ruby.l1_cntrl0.sequencer.mem-master-port::system.pc.south_bridge.ide.pio           34                       # Packet count per connected master and slave (bytes)
system.iobus.pkt_count_system.ruby.l1_cntrl0.sequencer.mem-master-port::system.pc.south_bridge.io_apic.pio           24                       # Packet count per connected master and slave (bytes)
system.iobus.pkt_count_system.ruby.l1_cntrl0.sequencer.mem-master-port::system.ruby.l1_cntrl0.sequencer.pio-slave-port         2002                       # Packet count per connected master and slave (bytes)
system.iobus.pkt_count_system.ruby.l1_cntrl0.sequencer.mem-master-port::system.ruby.l1_cntrl1.sequencer.pio-slave-port            2                       # Packet count per connected master and slave (bytes)
system.iobus.pkt_count_system.ruby.l1_cntrl0.sequencer.mem-master-port::system.ruby.l1_cntrl2.sequencer.pio-slave-port            2                       # Packet count per connected master and slave (bytes)
system.iobus.pkt_count_system.ruby.l1_cntrl0.sequencer.mem-master-port::system.ruby.l1_cntrl3.sequencer.pio-slave-port            2                       # Packet count per connected master and slave (bytes)
system.iobus.pkt_count_system.ruby.l1_cntrl0.sequencer.mem-master-port::total         2066                       # Packet count per connected master and slave (bytes)
system.iobus.pkt_count_system.ruby.l1_cntrl1.sequencer.mem-master-port::system.pc.south_bridge.ide.pio           12                       # Packet count per connected master and slave (bytes)
system.iobus.pkt_count_system.ruby.l1_cntrl1.sequencer.mem-master-port::system.pc.south_bridge.io_apic.pio           16                       # Packet count per connected master and slave (bytes)
system.iobus.pkt_count_system.ruby.l1_cntrl1.sequencer.mem-master-port::system.ruby.l1_cntrl1.sequencer.pio-slave-port         1990                       # Packet count per connected master and slave (bytes)
system.iobus.pkt_count_system.ruby.l1_cntrl1.sequencer.mem-master-port::system.ruby.l1_cntrl2.sequencer.pio-slave-port            2                       # Packet count per connected master and slave (bytes)
system.iobus.pkt_count_system.ruby.l1_cntrl1.sequencer.mem-master-port::total         2020                       # Packet count per connected master and slave (bytes)
system.iobus.pkt_count_system.ruby.l1_cntrl2.sequencer.mem-master-port::system.pc.south_bridge.ide.pio           46                       # Packet count per connected master and slave (bytes)
system.iobus.pkt_count_system.ruby.l1_cntrl2.sequencer.mem-master-port::system.pc.south_bridge.io_apic.pio           14                       # Packet count per connected master and slave (bytes)
system.iobus.pkt_count_system.ruby.l1_cntrl2.sequencer.mem-master-port::system.pc.com_1.pio           22                       # Packet count per connected master and slave (bytes)
system.iobus.pkt_count_system.ruby.l1_cntrl2.sequencer.mem-master-port::system.ruby.l1_cntrl0.sequencer.pio-slave-port            2                       # Packet count per connected master and slave (bytes)
system.iobus.pkt_count_system.ruby.l1_cntrl2.sequencer.mem-master-port::system.ruby.l1_cntrl1.sequencer.pio-slave-port            2                       # Packet count per connected master and slave (bytes)
system.iobus.pkt_count_system.ruby.l1_cntrl2.sequencer.mem-master-port::system.ruby.l1_cntrl2.sequencer.pio-slave-port         2014                       # Packet count per connected master and slave (bytes)
system.iobus.pkt_count_system.ruby.l1_cntrl2.sequencer.mem-master-port::system.ruby.l1_cntrl3.sequencer.pio-slave-port            6                       # Packet count per connected master and slave (bytes)
system.iobus.pkt_count_system.ruby.l1_cntrl2.sequencer.mem-master-port::total         2106                       # Packet count per connected master and slave (bytes)
system.iobus.pkt_count_system.ruby.l1_cntrl3.sequencer.mem-master-port::system.pc.south_bridge.io_apic.pio           26                       # Packet count per connected master and slave (bytes)
system.iobus.pkt_count_system.ruby.l1_cntrl3.sequencer.mem-master-port::system.pc.com_1.pio          426                       # Packet count per connected master and slave (bytes)
system.iobus.pkt_count_system.ruby.l1_cntrl3.sequencer.mem-master-port::system.ruby.l1_cntrl0.sequencer.pio-slave-port            2                       # Packet count per connected master and slave (bytes)
system.iobus.pkt_count_system.ruby.l1_cntrl3.sequencer.mem-master-port::system.ruby.l1_cntrl3.sequencer.pio-slave-port         1996                       # Packet count per connected master and slave (bytes)
system.iobus.pkt_count_system.ruby.l1_cntrl3.sequencer.mem-master-port::total         2450                       # Packet count per connected master and slave (bytes)
system.iobus.pkt_count::total                    8668                       # Packet count per connected master and slave (bytes)
system.iobus.pkt_size_system.pc.south_bridge.io_apic.int_master::system.ruby.l1_cntrl0.sequencer.pio-slave-port           12                       # Cumulative packet size per connected master and slave (bytes)
system.iobus.pkt_size_system.pc.south_bridge.io_apic.int_master::system.ruby.l1_cntrl1.sequencer.pio-slave-port           12                       # Cumulative packet size per connected master and slave (bytes)
system.iobus.pkt_size_system.pc.south_bridge.io_apic.int_master::system.ruby.l1_cntrl2.sequencer.pio-slave-port           12                       # Cumulative packet size per connected master and slave (bytes)
system.iobus.pkt_size_system.pc.south_bridge.io_apic.int_master::system.ruby.l1_cntrl3.sequencer.pio-slave-port           16                       # Cumulative packet size per connected master and slave (bytes)
system.iobus.pkt_size_system.pc.south_bridge.io_apic.int_master::total           52                       # Cumulative packet size per connected master and slave (bytes)
system.iobus.pkt_size_system.ruby.l1_cntrl0.sequencer.mem-master-port::system.pc.south_bridge.ide.pio           20                       # Cumulative packet size per connected master and slave (bytes)
system.iobus.pkt_size_system.ruby.l1_cntrl0.sequencer.mem-master-port::system.pc.south_bridge.io_apic.pio           48                       # Cumulative packet size per connected master and slave (bytes)
system.iobus.pkt_size_system.ruby.l1_cntrl0.sequencer.mem-master-port::system.ruby.l1_cntrl0.sequencer.pio-slave-port         4004                       # Cumulative packet size per connected master and slave (bytes)
system.iobus.pkt_size_system.ruby.l1_cntrl0.sequencer.mem-master-port::system.ruby.l1_cntrl1.sequencer.pio-slave-port            4                       # Cumulative packet size per connected master and slave (bytes)
system.iobus.pkt_size_system.ruby.l1_cntrl0.sequencer.mem-master-port::system.ruby.l1_cntrl2.sequencer.pio-slave-port            4                       # Cumulative packet size per connected master and slave (bytes)
system.iobus.pkt_size_system.ruby.l1_cntrl0.sequencer.mem-master-port::system.ruby.l1_cntrl3.sequencer.pio-slave-port            4                       # Cumulative packet size per connected master and slave (bytes)
system.iobus.pkt_size_system.ruby.l1_cntrl0.sequencer.mem-master-port::total         4084                       # Cumulative packet size per connected master and slave (bytes)
system.iobus.pkt_size_system.ruby.l1_cntrl1.sequencer.mem-master-port::system.pc.south_bridge.ide.pio            6                       # Cumulative packet size per connected master and slave (bytes)
system.iobus.pkt_size_system.ruby.l1_cntrl1.sequencer.mem-master-port::system.pc.south_bridge.io_apic.pio           32                       # Cumulative packet size per connected master and slave (bytes)
system.iobus.pkt_size_system.ruby.l1_cntrl1.sequencer.mem-master-port::system.ruby.l1_cntrl1.sequencer.pio-slave-port         3980                       # Cumulative packet size per connected master and slave (bytes)
system.iobus.pkt_size_system.ruby.l1_cntrl1.sequencer.mem-master-port::system.ruby.l1_cntrl2.sequencer.pio-slave-port            4                       # Cumulative packet size per connected master and slave (bytes)
system.iobus.pkt_size_system.ruby.l1_cntrl1.sequencer.mem-master-port::total         4022                       # Cumulative packet size per connected master and slave (bytes)
system.iobus.pkt_size_system.ruby.l1_cntrl2.sequencer.mem-master-port::system.pc.south_bridge.ide.pio           26                       # Cumulative packet size per connected master and slave (bytes)
system.iobus.pkt_size_system.ruby.l1_cntrl2.sequencer.mem-master-port::system.pc.south_bridge.io_apic.pio           28                       # Cumulative packet size per connected master and slave (bytes)
system.iobus.pkt_size_system.ruby.l1_cntrl2.sequencer.mem-master-port::system.pc.com_1.pio           11                       # Cumulative packet size per connected master and slave (bytes)
system.iobus.pkt_size_system.ruby.l1_cntrl2.sequencer.mem-master-port::system.ruby.l1_cntrl0.sequencer.pio-slave-port            4                       # Cumulative packet size per connected master and slave (bytes)
system.iobus.pkt_size_system.ruby.l1_cntrl2.sequencer.mem-master-port::system.ruby.l1_cntrl1.sequencer.pio-slave-port            4                       # Cumulative packet size per connected master and slave (bytes)
system.iobus.pkt_size_system.ruby.l1_cntrl2.sequencer.mem-master-port::system.ruby.l1_cntrl2.sequencer.pio-slave-port         4028                       # Cumulative packet size per connected master and slave (bytes)
system.iobus.pkt_size_system.ruby.l1_cntrl2.sequencer.mem-master-port::system.ruby.l1_cntrl3.sequencer.pio-slave-port           12                       # Cumulative packet size per connected master and slave (bytes)
system.iobus.pkt_size_system.ruby.l1_cntrl2.sequencer.mem-master-port::total         4113                       # Cumulative packet size per connected master and slave (bytes)
system.iobus.pkt_size_system.ruby.l1_cntrl3.sequencer.mem-master-port::system.pc.south_bridge.io_apic.pio           52                       # Cumulative packet size per connected master and slave (bytes)
system.iobus.pkt_size_system.ruby.l1_cntrl3.sequencer.mem-master-port::system.pc.com_1.pio          213                       # Cumulative packet size per connected master and slave (bytes)
system.iobus.pkt_size_system.ruby.l1_cntrl3.sequencer.mem-master-port::system.ruby.l1_cntrl0.sequencer.pio-slave-port            4                       # Cumulative packet size per connected master and slave (bytes)
system.iobus.pkt_size_system.ruby.l1_cntrl3.sequencer.mem-master-port::system.ruby.l1_cntrl3.sequencer.pio-slave-port         3992                       # Cumulative packet size per connected master and slave (bytes)
system.iobus.pkt_size_system.ruby.l1_cntrl3.sequencer.mem-master-port::total         4261                       # Cumulative packet size per connected master and slave (bytes)
system.iobus.pkt_size::total                    16532                       # Cumulative packet size per connected master and slave (bytes)
system.iobus.reqLayer2.occupancy                81000                       # Layer occupancy (ticks)
system.iobus.reqLayer2.utilization                0.0                       # Layer utilization (%)
system.iobus.reqLayer8.occupancy                68494                       # Layer occupancy (ticks)
system.iobus.reqLayer8.utilization                0.0                       # Layer utilization (%)
system.iobus.reqLayer12.occupancy              289500                       # Layer occupancy (ticks)
system.iobus.reqLayer12.utilization               0.0                       # Layer utilization (%)
system.iobus.reqLayer17.occupancy             2371497                       # Layer occupancy (ticks)
system.iobus.reqLayer17.utilization               0.0                       # Layer utilization (%)
system.iobus.reqLayer18.occupancy             2359499                       # Layer occupancy (ticks)
system.iobus.reqLayer18.utilization               0.0                       # Layer utilization (%)
system.iobus.reqLayer19.occupancy             2762510                       # Layer occupancy (ticks)
system.iobus.reqLayer19.utilization               0.0                       # Layer utilization (%)
system.iobus.reqLayer20.occupancy             2367500                       # Layer occupancy (ticks)
system.iobus.reqLayer20.utilization               0.0                       # Layer utilization (%)
system.iobus.respLayer0.occupancy               18498                       # Layer occupancy (ticks)
system.iobus.respLayer0.utilization               0.0                       # Layer utilization (%)
system.iobus.respLayer2.occupancy             1546500                       # Layer occupancy (ticks)
system.iobus.respLayer2.utilization               0.0                       # Layer utilization (%)
system.iobus.respLayer4.occupancy             1516500                       # Layer occupancy (ticks)
system.iobus.respLayer4.utilization               0.0                       # Layer utilization (%)
system.iobus.respLayer6.occupancy             1581500                       # Layer occupancy (ticks)
system.iobus.respLayer6.utilization               0.0                       # Layer utilization (%)
system.iobus.respLayer8.occupancy             1886000                       # Layer occupancy (ticks)
system.iobus.respLayer8.utilization               0.0                       # Layer utilization (%)
system.pc.south_bridge.ide.disks.dma_read_full_pages            1                       # Number of full page size DMA reads (not PRD).
system.pc.south_bridge.ide.disks.dma_read_bytes         4096                       # Number of bytes transfered via DMA reads (not PRD).
system.pc.south_bridge.ide.disks.dma_read_txs            1                       # Number of DMA read transactions (not PRD).
system.pc.south_bridge.ide.disks.dma_write_full_pages           24                       # Number of full page size DMA writes.
system.pc.south_bridge.ide.disks.dma_write_bytes        98304                       # Number of bytes transfered via DMA writes.
system.pc.south_bridge.ide.disks.dma_write_txs           24                       # Number of DMA write transactions.
system.ruby.clk_domain.clock                      500                       # Clock period in ticks
system.ruby.delayHist::bucket_size                  4                       # delay histogram for all message
system.ruby.delayHist::max_bucket                  39                       # delay histogram for all message
system.ruby.delayHist::samples               24338227                       # delay histogram for all message
system.ruby.delayHist::mean                  0.397126                       # delay histogram for all message
system.ruby.delayHist::stdev                 1.733268                       # delay histogram for all message
system.ruby.delayHist                    |    23138578     95.07%     95.07% |        3151      0.01%     95.08% |     1195981      4.91%    100.00% |         148      0.00%    100.00% |         353      0.00%    100.00% |           3      0.00%    100.00% |          11      0.00%    100.00% |           2      0.00%    100.00% |           0      0.00%    100.00% |           0      0.00%    100.00% # delay histogram for all message
system.ruby.delayHist::total                 24338227                       # delay histogram for all message
system.ruby.outstanding_req_hist_seqr::bucket_size            1                      
system.ruby.outstanding_req_hist_seqr::max_bucket            9                      
system.ruby.outstanding_req_hist_seqr::samples   3806016021                      
system.ruby.outstanding_req_hist_seqr::mean     1.000000                      
system.ruby.outstanding_req_hist_seqr::gmean     1.000000                      
system.ruby.outstanding_req_hist_seqr::stdev     0.000228                      
system.ruby.outstanding_req_hist_seqr    |           0      0.00%      0.00% |  3806015824    100.00%    100.00% |         197      0.00%    100.00% |           0      0.00%    100.00% |           0      0.00%    100.00% |           0      0.00%    100.00% |           0      0.00%    100.00% |           0      0.00%    100.00% |           0      0.00%    100.00% |           0      0.00%    100.00%
system.ruby.outstanding_req_hist_seqr::total   3806016021                      
system.ruby.latency_hist_seqr::bucket_size          256                      
system.ruby.latency_hist_seqr::max_bucket         2559                      
system.ruby.latency_hist_seqr::samples     3806016021                      
system.ruby.latency_hist_seqr::mean          1.085488                      
system.ruby.latency_hist_seqr::gmean         1.004264                      
system.ruby.latency_hist_seqr::stdev         3.793634                      
[...]
system.ruby.DMA_Controller.READY.WriteRequest::total         1664                      
system.ruby.DMA_Controller.BUSY_RD.Data  |          84    100.00%    100.00% |           0      0.00%    100.00%
system.ruby.DMA_Controller.BUSY_RD.Data::total           84                      
system.ruby.DMA_Controller.BUSY_WR.Ack   |        1664    100.00%    100.00% |           0      0.00%    100.00%
system.ruby.DMA_Controller.BUSY_WR.Ack::total         1664                      
system.ruby.L1Cache_Controller.Load      |     1952381      0.54%      0.54% |     1315562      0.36%      0.90% |   360519468     98.80%     99.70% |     1096640      0.30%    100.00%
system.ruby.L1Cache_Controller.Load::total    364884051                      
system.ruby.L1Cache_Controller.Ifetch    |    10076721      0.00%      0.00% |     6401908      0.00%      0.00% |18446744072790732800    100.00%    100.00% |     5012046      0.00%    100.00%
system.ruby.L1Cache_Controller.Ifetch::total 18446744072812222464                      
system.ruby.L1Cache_Controller.Store     |     1443401      2.45%      2.45% |     1013131      1.72%      4.18% |    55529916     94.44%     98.62% |      809817      1.38%    100.00%
system.ruby.L1Cache_Controller.Store::total     58796265                      
system.ruby.L1Cache_Controller.Inv       |       56340     27.92%     27.92% |       50371     24.96%     52.89% |       47712     23.65%     76.53% |       47350     23.47%    100.00%
system.ruby.L1Cache_Controller.Inv::total       201773                      
system.ruby.L1Cache_Controller.L1_Replacement |      142500      3.32%      3.32% |      107762      2.51%      5.83% |     3960687     92.31%     98.15% |       79509      1.85%    100.00%
system.ruby.L1Cache_Controller.L1_Replacement::total      4290458                      
system.ruby.L1Cache_Controller.Fwd_GETX  |        1661     32.19%     32.19% |        1301     25.21%     57.40% |        1483     28.74%     86.14% |         715     13.86%    100.00%
system.ruby.L1Cache_Controller.Fwd_GETX::total         5160                      
system.ruby.L1Cache_Controller.Fwd_GETS  |       11027     37.35%     37.35% |        7067     23.93%     61.28% |        4500     15.24%     76.52% |        6933     23.48%    100.00%
system.ruby.L1Cache_Controller.Fwd_GETS::total        29527                      
system.ruby.L1Cache_Controller.Fwd_GET_INSTR |           0      0.00%      0.00% |           0      0.00%      0.00% |           1    100.00%    100.00% |           0      0.00%    100.00%
system.ruby.L1Cache_Controller.Fwd_GET_INSTR::total            1                      
system.ruby.L1Cache_Controller.Data      |        1163     28.07%     28.07% |        1061     25.61%     53.68% |         990     23.90%     77.58% |         929     22.42%    100.00%
system.ruby.L1Cache_Controller.Data::total         4143                      
system.ruby.L1Cache_Controller.Data_Exclusive |       36790      1.09%      1.09% |       27270      0.81%      1.91% |     3277954     97.52%     99.42% |       19392      0.58%    100.00%
system.ruby.L1Cache_Controller.Data_Exclusive::total      3361406                      
system.ruby.L1Cache_Controller.DataS_fromL1 |        8045     27.25%     27.25% |       10551     35.73%     62.98% |        3404     11.53%     74.51% |        7528     25.49%    100.00%
system.ruby.L1Cache_Controller.DataS_fromL1::total        29528                      
system.ruby.L1Cache_Controller.Data_all_Acks |      125937     12.50%     12.50% |       99635      9.89%     22.40% |      699465     69.45%     91.84% |       82183      8.16%    100.00%
system.ruby.L1Cache_Controller.Data_all_Acks::total      1007220                      
system.ruby.L1Cache_Controller.Ack       |       23460     48.73%     48.73% |        8222     17.08%     65.81% |        9193     19.10%     84.91% |        7267     15.09%    100.00%
system.ruby.L1Cache_Controller.Ack::total        48142                      
system.ruby.L1Cache_Controller.Ack_all   |       10874     42.79%     42.79% |        5380     21.17%     63.96% |        4602     18.11%     82.07% |        4557     17.93%    100.00%
system.ruby.L1Cache_Controller.Ack_all::total        25413                      
system.ruby.L1Cache_Controller.WB_Ack    |       45029      1.15%      1.15% |       32108      0.82%      1.96% |     3830592     97.55%     99.52% |       18897      0.48%    100.00%
system.ruby.L1Cache_Controller.WB_Ack::total      3926626                      
system.ruby.L1Cache_Controller.NP.Load   |       49434      1.45%      1.45% |       37676      1.10%      2.55% |     3304738     96.62%     99.17% |       28363      0.83%    100.00%
system.ruby.L1Cache_Controller.NP.Load::total      3420211                      
system.ruby.L1Cache_Controller.NP.Ifetch |       76885     28.10%     28.10% |       56159     20.53%     48.63% |       98893     36.15%     84.78% |       41641     15.22%    100.00%
system.ruby.L1Cache_Controller.NP.Ifetch::total       273578                      
system.ruby.L1Cache_Controller.NP.Store  |       16181      2.71%      2.71% |       14453      2.42%      5.13% |      557056     93.25%     98.38% |        9704      1.62%    100.00%
system.ruby.L1Cache_Controller.NP.Store::total       597394                      
system.ruby.L1Cache_Controller.NP.Inv    |       16903     32.21%     32.21% |       10661     20.32%     52.53% |       17530     33.41%     85.94% |        7380     14.06%    100.00%
system.ruby.L1Cache_Controller.NP.Inv::total        52474                      
system.ruby.L1Cache_Controller.I.Load    |        8417     23.28%     23.28% |       12301     34.02%     57.30% |        2966      8.20%     65.50% |       12475     34.50%    100.00%
system.ruby.L1Cache_Controller.I.Load::total        36159                      
system.ruby.L1Cache_Controller.I.Ifetch  |       15266     26.02%     26.02% |       12998     22.16%     48.18% |       17382     29.63%     77.81% |       13020     22.19%    100.00%
system.ruby.L1Cache_Controller.I.Ifetch::total        58666                      
system.ruby.L1Cache_Controller.I.Store   |        5752     35.31%     35.31% |        4930     30.27%     65.58% |         777      4.77%     70.35% |        4829     29.65%    100.00%
system.ruby.L1Cache_Controller.I.Store::total        16288                      
system.ruby.L1Cache_Controller.I.L1_Replacement |       10659     25.03%     25.03% |       10714     25.16%     50.19% |       10434     24.50%     74.69% |       10777     25.31%    100.00%
system.ruby.L1Cache_Controller.I.L1_Replacement::total        42584                      
system.ruby.L1Cache_Controller.S.Load    |      261971     30.65%     30.65% |      224273     26.24%     56.89% |      156968     18.37%     75.26% |      211490     24.74%    100.00%
system.ruby.L1Cache_Controller.S.Load::total       854702                      
system.ruby.L1Cache_Controller.S.Ifetch  |     9984569      0.00%      0.00% |     6332750      0.00%      0.00% |18446744072790616064    100.00%    100.00% |     4957385      0.00%    100.00%
system.ruby.L1Cache_Controller.S.Ifetch::total 18446744072811890688                      
system.ruby.L1Cache_Controller.S.Store   |        9711     45.65%     45.65% |        4319     20.30%     65.96% |        3613     16.99%     82.94% |        3628     17.06%    100.00%
system.ruby.L1Cache_Controller.S.Store::total        21271                      
system.ruby.L1Cache_Controller.S.Inv     |       27881     24.35%     24.35% |       29602     25.85%     50.21% |       27282     23.83%     74.03% |       29730     25.97%    100.00%
system.ruby.L1Cache_Controller.S.Inv::total       114495                      
system.ruby.L1Cache_Controller.S.L1_Replacement |       86812     27.02%     27.02% |       64940     20.21%     47.24% |      119661     37.25%     84.49% |       49835     15.51%    100.00%
system.ruby.L1Cache_Controller.S.L1_Replacement::total       321248                      
system.ruby.L1Cache_Controller.E.Load    |      294326      0.17%      0.17% |      227077      0.13%      0.31% |   169711840     99.60%     99.90% |      162474      0.10%    100.00%
system.ruby.L1Cache_Controller.E.Load::total    170395717                      
system.ruby.L1Cache_Controller.E.Store   |       14675      2.31%      2.31% |        8614      1.36%      3.67% |      607087     95.75%     99.42% |        3681      0.58%    100.00%
system.ruby.L1Cache_Controller.E.Store::total       634057                      
system.ruby.L1Cache_Controller.E.Inv     |        4018     31.99%     31.99% |        3297     26.25%     58.23% |        1625     12.94%     71.17% |        3622     28.83%    100.00%
system.ruby.L1Cache_Controller.E.Inv::total        12562                      
system.ruby.L1Cache_Controller.E.L1_Replacement |       15739      0.58%      0.58% |       10923      0.40%      0.99% |     2667720     98.74%     99.72% |        7504      0.28%    100.00%
system.ruby.L1Cache_Controller.E.L1_Replacement::total      2701886                      
system.ruby.L1Cache_Controller.E.Fwd_GETX |         192     18.82%     18.82% |         494     48.43%     67.25% |         295     28.92%     96.18% |          39      3.82%    100.00%
system.ruby.L1Cache_Controller.E.Fwd_GETX::total         1020                      
system.ruby.L1Cache_Controller.E.Fwd_GETS |        2635     22.51%     22.51% |        3944     33.69%     56.19% |        1013      8.65%     64.84% |        4116     35.16%    100.00%
system.ruby.L1Cache_Controller.E.Fwd_GETS::total        11708                      
system.ruby.L1Cache_Controller.E.Fwd_GET_INSTR |           0      0.00%      0.00% |           0      0.00%      0.00% |           1    100.00%    100.00% |           0      0.00%    100.00%
system.ruby.L1Cache_Controller.E.Fwd_GET_INSTR::total            1                      
system.ruby.L1Cache_Controller.M.Load    |     1338233      0.70%      0.70% |      814235      0.43%      1.13% |   187342956     98.51%     99.64% |      681838      0.36%    100.00%
system.ruby.L1Cache_Controller.M.Load::total    190177262                      
system.ruby.L1Cache_Controller.M.Store   |     1397082      2.43%      2.43% |      980815      1.70%      4.13% |    54361383     94.50%     98.63% |      787975      1.37%    100.00%
system.ruby.L1Cache_Controller.M.Store::total     57527255                      
system.ruby.L1Cache_Controller.M.Inv     |        7538     33.89%     33.89% |        6811     30.62%     64.52% |        1274      5.73%     70.24% |        6618     29.76%    100.00%
system.ruby.L1Cache_Controller.M.Inv::total        22241                      
system.ruby.L1Cache_Controller.M.L1_Replacement |       29290      2.39%      2.39% |       21185      1.73%      4.12% |     1162872     94.95%     99.07% |       11393      0.93%    100.00%
system.ruby.L1Cache_Controller.M.L1_Replacement::total      1224740                      
system.ruby.L1Cache_Controller.M.Fwd_GETX |        1469     35.48%     35.48% |         807     19.49%     54.98% |        1188     28.70%     83.67% |         676     16.33%    100.00%
system.ruby.L1Cache_Controller.M.Fwd_GETX::total         4140                      
system.ruby.L1Cache_Controller.M.Fwd_GETS |        8392     47.10%     47.10% |        3123     17.53%     64.62% |        3487     19.57%     84.19% |        2817     15.81%    100.00%
system.ruby.L1Cache_Controller.M.Fwd_GETS::total        17819                      
system.ruby.L1Cache_Controller.IS.Data_Exclusive |       36790      1.09%      1.09% |       27270      0.81%      1.91% |     3277954     97.52%     99.42% |       19392      0.58%    100.00%
system.ruby.L1Cache_Controller.IS.Data_Exclusive::total      3361406                      
system.ruby.L1Cache_Controller.IS.DataS_fromL1 |        8045     27.25%     27.25% |       10551     35.73%     62.98% |        3404     11.53%     74.51% |        7528     25.49%    100.00%
system.ruby.L1Cache_Controller.IS.DataS_fromL1::total        29528                      
system.ruby.L1Cache_Controller.IS.Data_all_Acks |      105167     26.45%     26.45% |       81313     20.45%     46.89% |      142621     35.86%     82.76% |       68579     17.24%    100.00%
system.ruby.L1Cache_Controller.IS.Data_all_Acks::total       397680                      
system.ruby.L1Cache_Controller.IM.Data   |        1163     28.07%     28.07% |        1061     25.61%     53.68% |         990     23.90%     77.58% |         929     22.42%    100.00%
system.ruby.L1Cache_Controller.IM.Data::total         4143                      
system.ruby.L1Cache_Controller.IM.Data_all_Acks |       20770      3.41%      3.41% |       18322      3.01%      6.41% |      556844     91.35%     97.77% |       13604      2.23%    100.00%
system.ruby.L1Cache_Controller.IM.Data_all_Acks::total       609540                      
system.ruby.L1Cache_Controller.SM.Inv    |           0      0.00%      0.00% |           0      0.00%      0.00% |           1    100.00%    100.00% |           0      0.00%    100.00%
system.ruby.L1Cache_Controller.SM.Inv::total            1                      
system.ruby.L1Cache_Controller.SM.Ack    |       23460     48.73%     48.73% |        8222     17.08%     65.81% |        9193     19.10%     84.91% |        7267     15.09%    100.00%
system.ruby.L1Cache_Controller.SM.Ack::total        48142                      
system.ruby.L1Cache_Controller.SM.Ack_all |       10874     42.79%     42.79% |        5380     21.17%     63.96% |        4602     18.11%     82.07% |        4557     17.93%    100.00%
system.ruby.L1Cache_Controller.SM.Ack_all::total        25413                      
system.ruby.L1Cache_Controller.M_I.Ifetch |           1     50.00%     50.00% |           1     50.00%    100.00% |           0      0.00%    100.00% |           0      0.00%    100.00%
system.ruby.L1Cache_Controller.M_I.Ifetch::total            2                      
system.ruby.L1Cache_Controller.M_I.WB_Ack |       45029      1.15%      1.15% |       32108      0.82%      1.96% |     3830592     97.55%     99.52% |       18897      0.48%    100.00%
system.ruby.L1Cache_Controller.M_I.WB_Ack::total      3926626                      
system.ruby.L2Cache_Controller.L1_GET_INSTR       332246      0.00%      0.00%
system.ruby.L2Cache_Controller.L1_GETS        3456820      0.00%      0.00%
system.ruby.L2Cache_Controller.L1_GETX         613691      0.00%      0.00%
system.ruby.L2Cache_Controller.L1_UPGRADE        21271      0.00%      0.00%
system.ruby.L2Cache_Controller.L1_PUTX        3926626      0.00%      0.00%
system.ruby.L2Cache_Controller.L2_Replacement       985267      0.00%      0.00%
system.ruby.L2Cache_Controller.L2_Replacement_clean      1018675      0.00%      0.00%
system.ruby.L2Cache_Controller.Mem_Data       2006570      0.00%      0.00%
system.ruby.L2Cache_Controller.Mem_Ack        2003951      0.00%      0.00%
system.ruby.L2Cache_Controller.WB_Data          40060      0.00%      0.00%
system.ruby.L2Cache_Controller.WB_Data_clean        11709      0.00%      0.00%
system.ruby.L2Cache_Controller.Ack              57200      0.00%      0.00%
system.ruby.L2Cache_Controller.Ack_all          70047      0.00%      0.00%
system.ruby.L2Cache_Controller.Unblock          29528      0.00%      0.00%
system.ruby.L2Cache_Controller.Exclusive_Unblock      3996359      0.00%      0.00%
system.ruby.L2Cache_Controller.MEM_Inv             18      0.00%      0.00%
system.ruby.L2Cache_Controller.NP.L1_GET_INSTR        53954      0.00%      0.00%
system.ruby.L2Cache_Controller.NP.L1_GETS      1452562      0.00%      0.00%
system.ruby.L2Cache_Controller.NP.L1_GETX       500054      0.00%      0.00%
system.ruby.L2Cache_Controller.SS.L1_GET_INSTR       278269      0.00%      0.00%
system.ruby.L2Cache_Controller.SS.L1_GETS        65435      0.00%      0.00%
system.ruby.L2Cache_Controller.SS.L1_GETX         4143      0.00%      0.00%
system.ruby.L2Cache_Controller.SS.L1_UPGRADE        21270      0.00%      0.00%
system.ruby.L2Cache_Controller.SS.L2_Replacement         1012      0.00%      0.00%
system.ruby.L2Cache_Controller.SS.L2_Replacement_clean        56473      0.00%      0.00%
system.ruby.L2Cache_Controller.M.L1_GET_INSTR           18      0.00%      0.00%
system.ruby.L2Cache_Controller.M.L1_GETS      1908845      0.00%      0.00%
system.ruby.L2Cache_Controller.M.L1_GETX       104326      0.00%      0.00%
system.ruby.L2Cache_Controller.M.L2_Replacement       981669      0.00%      0.00%
system.ruby.L2Cache_Controller.M.L2_Replacement_clean       929992      0.00%      0.00%
system.ruby.L2Cache_Controller.M.MEM_Inv            2      0.00%      0.00%
system.ruby.L2Cache_Controller.MT.L1_GET_INSTR            1      0.00%      0.00%
system.ruby.L2Cache_Controller.MT.L1_GETS        29527      0.00%      0.00%
system.ruby.L2Cache_Controller.MT.L1_GETX         5160      0.00%      0.00%
system.ruby.L2Cache_Controller.MT.L1_PUTX      3926626      0.00%      0.00%
system.ruby.L2Cache_Controller.MT.L2_Replacement         2586      0.00%      0.00%
system.ruby.L2Cache_Controller.MT.L2_Replacement_clean        32210      0.00%      0.00%
system.ruby.L2Cache_Controller.MT.MEM_Inv            7      0.00%      0.00%
system.ruby.L2Cache_Controller.M_I.L1_GET_INSTR            2      0.00%      0.00%
system.ruby.L2Cache_Controller.M_I.L1_GETS            2      0.00%      0.00%
system.ruby.L2Cache_Controller.M_I.Mem_Ack      2003951      0.00%      0.00%
system.ruby.L2Cache_Controller.M_I.MEM_Inv            2      0.00%      0.00%
system.ruby.L2Cache_Controller.MT_I.WB_Data         1970      0.00%      0.00%
system.ruby.L2Cache_Controller.MT_I.Ack_all          623      0.00%      0.00%
system.ruby.L2Cache_Controller.MT_I.MEM_Inv            7      0.00%      0.00%
system.ruby.L2Cache_Controller.MCT_I.WB_Data        20271      0.00%      0.00%
system.ruby.L2Cache_Controller.MCT_I.Ack_all        11939      0.00%      0.00%
system.ruby.L2Cache_Controller.I_I.Ack          55958      0.00%      0.00%
system.ruby.L2Cache_Controller.I_I.Ack_all        56473      0.00%      0.00%
system.ruby.L2Cache_Controller.S_I.Ack           1242      0.00%      0.00%
system.ruby.L2Cache_Controller.S_I.Ack_all         1012      0.00%      0.00%
system.ruby.L2Cache_Controller.ISS.L1_GETS            1      0.00%      0.00%
system.ruby.L2Cache_Controller.ISS.Mem_Data      1452561      0.00%      0.00%
system.ruby.L2Cache_Controller.IS.L1_GET_INSTR            2      0.00%      0.00%
system.ruby.L2Cache_Controller.IS.Mem_Data        53955      0.00%      0.00%
system.ruby.L2Cache_Controller.IM.Mem_Data       500054      0.00%      0.00%
system.ruby.L2Cache_Controller.SS_MB.L1_GETS           70      0.00%      0.00%
system.ruby.L2Cache_Controller.SS_MB.L1_GETX            4      0.00%      0.00%
system.ruby.L2Cache_Controller.SS_MB.L1_UPGRADE            1      0.00%      0.00%
system.ruby.L2Cache_Controller.SS_MB.Exclusive_Unblock        25413      0.00%      0.00%
system.ruby.L2Cache_Controller.MT_MB.L1_GETS          374      0.00%      0.00%
system.ruby.L2Cache_Controller.MT_MB.L1_GETX            4      0.00%      0.00%
system.ruby.L2Cache_Controller.MT_MB.Exclusive_Unblock      3970946      0.00%      0.00%
system.ruby.L2Cache_Controller.MT_IIB.L1_GETS            4      0.00%      0.00%
system.ruby.L2Cache_Controller.MT_IIB.WB_Data        17801      0.00%      0.00%
system.ruby.L2Cache_Controller.MT_IIB.WB_Data_clean        11693      0.00%      0.00%
system.ruby.L2Cache_Controller.MT_IIB.Unblock           34      0.00%      0.00%
system.ruby.L2Cache_Controller.MT_IB.WB_Data           18      0.00%      0.00%
system.ruby.L2Cache_Controller.MT_IB.WB_Data_clean           16      0.00%      0.00%
system.ruby.L2Cache_Controller.MT_SB.Unblock        29494      0.00%      0.00%

---------- End Simulation Statistics   ----------
