
---------- Begin Simulation Statistics ----------
sim_seconds                                  2.563089                       # Number of seconds simulated
sim_ticks                                2563089131000                       # Number of ticks simulated
final_tick                               54792622565001                       # Number of ticks from beginning of simulation (restored from checkpoints and never reset)
sim_freq                                 1000000000000                       # Frequency of simulated ticks
host_inst_rate                                 127230                       # Simulator instruction rate (inst/s)
host_op_rate                                   189815                       # Simulator op (including micro ops) rate (op/s)
host_tick_rate                              448624289                       # Simulator tick rate (ticks/s)
host_mem_usage                                2459376                       # Number of bytes of host memory used
host_seconds                                  5713.22                       # Real time elapsed on the host
sim_insts                                   726892391                       # Number of instructions simulated
sim_ops                                    1084457629                       # Number of ops (including micro ops) simulated
system.voltage_domain.voltage                       1                       # Voltage in Volts
system.clk_domain.clock                          1000                       # Clock period in ticks
system.mem_ctrls.bytes_read::ruby.dir_cntrl0   1142149696                       # Number of bytes read from this memory
system.mem_ctrls.bytes_read::total         1142149696                       # Number of bytes read from this memory
system.mem_ctrls.bytes_written::ruby.dir_cntrl0   1142109376                       # Number of bytes written to this memory
system.mem_ctrls.bytes_written::total      1142109376                       # Number of bytes written to this memory
system.mem_ctrls.num_reads::ruby.dir_cntrl0     17846089                       # Number of read requests responded to by this memory
system.mem_ctrls.num_reads::total            17846089                       # Number of read requests responded to by this memory
system.mem_ctrls.num_writes::ruby.dir_cntrl0     17845459                       # Number of write requests responded to by this memory
system.mem_ctrls.num_writes::total           17845459                       # Number of write requests responded to by this memory
system.mem_ctrls.bw_read::ruby.dir_cntrl0    445614506                       # Total read bandwidth from this memory (bytes/s)
system.mem_ctrls.bw_read::total             445614506                       # Total read bandwidth from this memory (bytes/s)
system.mem_ctrls.bw_write::ruby.dir_cntrl0    445598775                       # Write bandwidth from this memory (bytes/s)
system.mem_ctrls.bw_write::total            445598775                       # Write bandwidth from this memory (bytes/s)
system.mem_ctrls.bw_total::ruby.dir_cntrl0    891213280                       # Total bandwidth to/from this memory (bytes/s)
system.mem_ctrls.bw_total::total            891213280                       # Total bandwidth to/from this memory (bytes/s)
system.mem_ctrls.readReqs                    17846089                       # Number of read requests accepted
system.mem_ctrls.writeReqs                   17845459                       # Number of write requests accepted
system.mem_ctrls.readBursts                  17846089                       # Number of DRAM read bursts, including those serviced by the write queue
system.mem_ctrls.writeBursts                 17845459                       # Number of DRAM write bursts, including those merged in the write queue
system.mem_ctrls.bytesReadDRAM             1132993792                       # Total number of bytes read from DRAM
system.mem_ctrls.bytesReadWrQ                 9155904                       # Total number of bytes read from write queue
system.mem_ctrls.bytesWritten              1141929152                       # Total number of bytes written to DRAM
system.mem_ctrls.bytesReadSys              1142149696                       # Total read bytes from the system interface side
system.mem_ctrls.bytesWrittenSys           1142109376                       # Total written bytes from the system interface side
system.mem_ctrls.servicedByWrQ                 143061                       # Number of DRAM read bursts serviced by the write queue
system.mem_ctrls.mergedWrBursts                  2820                       # Number of DRAM write bursts merged with an existing one
system.mem_ctrls.neitherReadNorWriteReqs            0                       # Number of requests that are neither read nor write
system.mem_ctrls.perBankRdBursts::0           1245702                       # Per bank write bursts
system.mem_ctrls.perBankRdBursts::1           1373472                       # Per bank write bursts
system.mem_ctrls.perBankRdBursts::2            984194                       # Per bank write bursts
system.mem_ctrls.perBankRdBursts::3            806585                       # Per bank write bursts
system.mem_ctrls.perBankRdBursts::4           1121999                       # Per bank write bursts
system.mem_ctrls.perBankRdBursts::5            793348                       # Per bank write bursts
system.mem_ctrls.perBankRdBursts::6            777462                       # Per bank write bursts
system.mem_ctrls.perBankRdBursts::7           1064679                       # Per bank write bursts
system.mem_ctrls.perBankRdBursts::8            908395                       # Per bank write bursts
system.mem_ctrls.perBankRdBursts::9           1207573                       # Per bank write bursts
system.mem_ctrls.perBankRdBursts::10          1308767                       # Per bank write bursts
system.mem_ctrls.perBankRdBursts::11           791982                       # Per bank write bursts
system.mem_ctrls.perBankRdBursts::12          1248272                       # Per bank write bursts
system.mem_ctrls.perBankRdBursts::13           871726                       # Per bank write bursts
system.mem_ctrls.perBankRdBursts::14          1351943                       # Per bank write bursts
system.mem_ctrls.perBankRdBursts::15          1846929                       # Per bank write bursts
system.mem_ctrls.perBankWrBursts::0           1257962                       # Per bank write bursts
system.mem_ctrls.perBankWrBursts::1           1387607                       # Per bank write bursts
system.mem_ctrls.perBankWrBursts::2            989346                       # Per bank write bursts
system.mem_ctrls.perBankWrBursts::3            810931                       # Per bank write bursts
system.mem_ctrls.perBankWrBursts::4           1131216                       # Per bank write bursts
system.mem_ctrls.perBankWrBursts::5            796951                       # Per bank write bursts
system.mem_ctrls.perBankWrBursts::6            779299                       # Per bank write bursts
system.mem_ctrls.perBankWrBursts::7           1070372                       # Per bank write bursts
system.mem_ctrls.perBankWrBursts::8            913231                       # Per bank write bursts
system.mem_ctrls.perBankWrBursts::9           1215899                       # Per bank write bursts
system.mem_ctrls.perBankWrBursts::10          1319124                       # Per bank write bursts
system.mem_ctrls.perBankWrBursts::11           795089                       # Per bank write bursts
system.mem_ctrls.perBankWrBursts::12          1262387                       # Per bank write bursts
system.mem_ctrls.perBankWrBursts::13           875227                       # Per bank write bursts
system.mem_ctrls.perBankWrBursts::14          1365109                       # Per bank write bursts
system.mem_ctrls.perBankWrBursts::15          1872893                       # Per bank write bursts
system.mem_ctrls.numRdRetry                         0                       # Number of times read queue was full causing retry
system.mem_ctrls.numWrRetry                         0                       # Number of times write queue was full causing retry
system.mem_ctrls.totGap                  2563089135000                       # Total gap between requests
system.mem_ctrls.readPktSize::0                     0                       # Read request sizes (log2)
system.mem_ctrls.readPktSize::1                     0                       # Read request sizes (log2)
system.mem_ctrls.readPktSize::2                     0                       # Read request sizes (log2)
system.mem_ctrls.readPktSize::3                     0                       # Read request sizes (log2)
system.mem_ctrls.readPktSize::4                     0                       # Read request sizes (log2)
system.mem_ctrls.readPktSize::5                     0                       # Read request sizes (log2)
system.mem_ctrls.readPktSize::6              17846089                       # Read request sizes (log2)
system.mem_ctrls.writePktSize::0                    0                       # Write request sizes (log2)
system.mem_ctrls.writePktSize::1                    0                       # Write request sizes (log2)
system.mem_ctrls.writePktSize::2                    0                       # Write request sizes (log2)
system.mem_ctrls.writePktSize::3                    0                       # Write request sizes (log2)
system.mem_ctrls.writePktSize::4                    0                       # Write request sizes (log2)
system.mem_ctrls.writePktSize::5                    0                       # Write request sizes (log2)
system.mem_ctrls.writePktSize::6             17845459                       # Write request sizes (log2)
system.mem_ctrls.rdQLenPdf::0                17638048                       # What read queue length does an incoming req see
system.mem_ctrls.rdQLenPdf::1                   64974                       # What read queue length does an incoming req see
system.mem_ctrls.rdQLenPdf::2                       6                       # What read queue length does an incoming req see
system.mem_ctrls.rdQLenPdf::3                       0                       # What read queue length does an incoming req see
system.mem_ctrls.rdQLenPdf::4                       0                       # What read queue length does an incoming req see
system.mem_ctrls.rdQLenPdf::5                       0                       # What read queue length does an incoming req see
system.mem_ctrls.rdQLenPdf::6                       0                       # What read queue length does an incoming req see
system.mem_ctrls.rdQLenPdf::7                       0                       # What read queue length does an incoming req see
system.mem_ctrls.rdQLenPdf::8                       0                       # What read queue length does an incoming req see
system.mem_ctrls.rdQLenPdf::9                       0                       # What read queue length does an incoming req see
system.mem_ctrls.rdQLenPdf::10                      0                       # What read queue length does an incoming req see
system.mem_ctrls.rdQLenPdf::11                      0                       # What read queue length does an incoming req see
system.mem_ctrls.rdQLenPdf::12                      0                       # What read queue length does an incoming req see
system.mem_ctrls.rdQLenPdf::13                      0                       # What read queue length does an incoming req see
system.mem_ctrls.rdQLenPdf::14                      0                       # What read queue length does an incoming req see
system.mem_ctrls.rdQLenPdf::15                      0                       # What read queue length does an incoming req see
system.mem_ctrls.rdQLenPdf::16                      0                       # What read queue length does an incoming req see
system.mem_ctrls.rdQLenPdf::17                      0                       # What read queue length does an incoming req see
system.mem_ctrls.rdQLenPdf::18                      0                       # What read queue length does an incoming req see
system.mem_ctrls.rdQLenPdf::19                      0                       # What read queue length does an incoming req see
system.mem_ctrls.rdQLenPdf::20                      0                       # What read queue length does an incoming req see
system.mem_ctrls.rdQLenPdf::21                      0                       # What read queue length does an incoming req see
system.mem_ctrls.rdQLenPdf::22                      0                       # What read queue length does an incoming req see
system.mem_ctrls.rdQLenPdf::23                      0                       # What read queue length does an incoming req see
system.mem_ctrls.rdQLenPdf::24                      0                       # What read queue length does an incoming req see
system.mem_ctrls.rdQLenPdf::25                      0                       # What read queue length does an incoming req see
system.mem_ctrls.rdQLenPdf::26                      0                       # What read queue length does an incoming req see
system.mem_ctrls.rdQLenPdf::27                      0                       # What read queue length does an incoming req see
system.mem_ctrls.rdQLenPdf::28                      0                       # What read queue length does an incoming req see
system.mem_ctrls.rdQLenPdf::29                      0                       # What read queue length does an incoming req see
system.mem_ctrls.rdQLenPdf::30                      0                       # What read queue length does an incoming req see
system.mem_ctrls.rdQLenPdf::31                      0                       # What read queue length does an incoming req see
system.mem_ctrls.wrQLenPdf::0                       0                       # What write queue length does an incoming req see
system.mem_ctrls.wrQLenPdf::1                       0                       # What write queue length does an incoming req see
system.mem_ctrls.wrQLenPdf::2                       0                       # What write queue length does an incoming req see
system.mem_ctrls.wrQLenPdf::3                       0                       # What write queue length does an incoming req see
system.mem_ctrls.wrQLenPdf::4                       0                       # What write queue length does an incoming req see
system.mem_ctrls.wrQLenPdf::5                       0                       # What write queue length does an incoming req see
system.mem_ctrls.wrQLenPdf::6                       0                       # What write queue length does an incoming req see
system.mem_ctrls.wrQLenPdf::7                       0                       # What write queue length does an incoming req see
system.mem_ctrls.wrQLenPdf::8                       0                       # What write queue length does an incoming req see
system.mem_ctrls.wrQLenPdf::9                       0                       # What write queue length does an incoming req see
system.mem_ctrls.wrQLenPdf::10                      0                       # What write queue length does an incoming req see
system.mem_ctrls.wrQLenPdf::11                      0                       # What write queue length does an incoming req see
system.mem_ctrls.wrQLenPdf::12                      0                       # What write queue length does an incoming req see
system.mem_ctrls.wrQLenPdf::13                      0                       # What write queue length does an incoming req see
system.mem_ctrls.wrQLenPdf::14                      0                       # What write queue length does an incoming req see
system.mem_ctrls.wrQLenPdf::15                   7566                       # What write queue length does an incoming req see
system.mem_ctrls.wrQLenPdf::16                  12409                       # What write queue length does an incoming req see
system.mem_ctrls.wrQLenPdf::17                1097940                       # What write queue length does an incoming req see
system.mem_ctrls.wrQLenPdf::18                1115043                       # What write queue length does an incoming req see
system.mem_ctrls.wrQLenPdf::19                1116832                       # What write queue length does an incoming req see
system.mem_ctrls.wrQLenPdf::20                1116346                       # What write queue length does an incoming req see
system.mem_ctrls.wrQLenPdf::21                1115503                       # What write queue length does an incoming req see
system.mem_ctrls.wrQLenPdf::22                1115802                       # What write queue length does an incoming req see
system.mem_ctrls.wrQLenPdf::23                1116264                       # What write queue length does an incoming req see
system.mem_ctrls.wrQLenPdf::24                1116069                       # What write queue length does an incoming req see
system.mem_ctrls.wrQLenPdf::25                1116007                       # What write queue length does an incoming req see
system.mem_ctrls.wrQLenPdf::26                1114809                       # What write queue length does an incoming req see
system.mem_ctrls.wrQLenPdf::27                1113961                       # What write queue length does an incoming req see
system.mem_ctrls.wrQLenPdf::28                1113680                       # What write queue length does an incoming req see
system.mem_ctrls.wrQLenPdf::29                1113565                       # What write queue length does an incoming req see
system.mem_ctrls.wrQLenPdf::30                1113508                       # What write queue length does an incoming req see
system.mem_ctrls.wrQLenPdf::31                1113432                       # What write queue length does an incoming req see
system.mem_ctrls.wrQLenPdf::32                1113415                       # What write queue length does an incoming req see
system.mem_ctrls.wrQLenPdf::33                    298                       # What write queue length does an incoming req see
system.mem_ctrls.wrQLenPdf::34                     87                       # What write queue length does an incoming req see
system.mem_ctrls.wrQLenPdf::35                     54                       # What write queue length does an incoming req see
system.mem_ctrls.wrQLenPdf::36                     25                       # What write queue length does an incoming req see
system.mem_ctrls.wrQLenPdf::37                     15                       # What write queue length does an incoming req see
system.mem_ctrls.wrQLenPdf::38                      6                       # What write queue length does an incoming req see
system.mem_ctrls.wrQLenPdf::39                      3                       # What write queue length does an incoming req see
system.mem_ctrls.wrQLenPdf::40                      0                       # What write queue length does an incoming req see
system.mem_ctrls.wrQLenPdf::41                      0                       # What write queue length does an incoming req see
system.mem_ctrls.wrQLenPdf::42                      0                       # What write queue length does an incoming req see
system.mem_ctrls.wrQLenPdf::43                      0                       # What write queue length does an incoming req see
system.mem_ctrls.wrQLenPdf::44                      0                       # What write queue length does an incoming req see
system.mem_ctrls.wrQLenPdf::45                      0                       # What write queue length does an incoming req see
system.mem_ctrls.wrQLenPdf::46                      0                       # What write queue length does an incoming req see
system.mem_ctrls.wrQLenPdf::47                      0                       # What write queue length does an incoming req see
system.mem_ctrls.wrQLenPdf::48                      0                       # What write queue length does an incoming req see
system.mem_ctrls.wrQLenPdf::49                      0                       # What write queue length does an incoming req see
system.mem_ctrls.wrQLenPdf::50                      0                       # What write queue length does an incoming req see
system.mem_ctrls.wrQLenPdf::51                      0                       # What write queue length does an incoming req see
system.mem_ctrls.wrQLenPdf::52                      0                       # What write queue length does an incoming req see
system.mem_ctrls.wrQLenPdf::53                      0                       # What write queue length does an incoming req see
system.mem_ctrls.wrQLenPdf::54                      0                       # What write queue length does an incoming req see
system.mem_ctrls.wrQLenPdf::55                      0                       # What write queue length does an incoming req see
system.mem_ctrls.wrQLenPdf::56                      0                       # What write queue length does an incoming req see
system.mem_ctrls.wrQLenPdf::57                      0                       # What write queue length does an incoming req see
system.mem_ctrls.wrQLenPdf::58                      0                       # What write queue length does an incoming req see
system.mem_ctrls.wrQLenPdf::59                      0                       # What write queue length does an incoming req see
system.mem_ctrls.wrQLenPdf::60                      0                       # What write queue length does an incoming req see
system.mem_ctrls.wrQLenPdf::61                      0                       # What write queue length does an incoming req see
system.mem_ctrls.wrQLenPdf::62                      0                       # What write queue length does an incoming req see
system.mem_ctrls.wrQLenPdf::63                      0                       # What write queue length does an incoming req see
system.mem_ctrls.bytesPerActivate::samples     24728938                       # Bytes accessed per row activation
system.mem_ctrls.bytesPerActivate::mean     91.994352                       # Bytes accessed per row activation
system.mem_ctrls.bytesPerActivate::gmean    76.096946                       # Bytes accessed per row activation
system.mem_ctrls.bytesPerActivate::stdev   110.763746                       # Bytes accessed per row activation
system.mem_ctrls.bytesPerActivate::0-127     20766570     83.98%     83.98% # Bytes accessed per row activation
system.mem_ctrls.bytesPerActivate::128-255      3006581     12.16%     96.13% # Bytes accessed per row activation
system.mem_ctrls.bytesPerActivate::256-383       441959      1.79%     97.92% # Bytes accessed per row activation
system.mem_ctrls.bytesPerActivate::384-511       124041      0.50%     98.42% # Bytes accessed per row activation
system.mem_ctrls.bytesPerActivate::512-639        68072      0.28%     98.70% # Bytes accessed per row activation
system.mem_ctrls.bytesPerActivate::640-767        44518      0.18%     98.88% # Bytes accessed per row activation
system.mem_ctrls.bytesPerActivate::768-895        38852      0.16%     99.04% # Bytes accessed per row activation
system.mem_ctrls.bytesPerActivate::896-1023        41346      0.17%     99.20% # Bytes accessed per row activation
system.mem_ctrls.bytesPerActivate::1024-1151       196999      0.80%    100.00% # Bytes accessed per row activation
system.mem_ctrls.bytesPerActivate::total     24728938                       # Bytes accessed per row activation
system.mem_ctrls.rdPerTurnAround::samples      1113400                       # Reads before turning the bus around for writes
system.mem_ctrls.rdPerTurnAround::mean      15.899975                       # Reads before turning the bus around for writes
system.mem_ctrls.rdPerTurnAround::stdev      1.821267                       # Reads before turning the bus around for writes
system.mem_ctrls.rdPerTurnAround::0-7            5199      0.47%      0.47% # Reads before turning the bus around for writes
system.mem_ctrls.rdPerTurnAround::8-15         135555     12.17%     12.64% # Reads before turning the bus around for writes
system.mem_ctrls.rdPerTurnAround::16-23        968501     86.99%     99.63% # Reads before turning the bus around for writes
system.mem_ctrls.rdPerTurnAround::24-31          1824      0.16%     99.79% # Reads before turning the bus around for writes
system.mem_ctrls.rdPerTurnAround::32-39          1728      0.16%     99.95% # Reads before turning the bus around for writes
system.mem_ctrls.rdPerTurnAround::40-47           337      0.03%     99.98% # Reads before turning the bus around for writes
system.mem_ctrls.rdPerTurnAround::48-55            42      0.00%     99.98% # Reads before turning the bus around for writes
system.mem_ctrls.rdPerTurnAround::56-63             9      0.00%     99.98% # Reads before turning the bus around for writes
system.mem_ctrls.rdPerTurnAround::64-71             3      0.00%     99.98% # Reads before turning the bus around for writes
system.mem_ctrls.rdPerTurnAround::72-79            10      0.00%     99.98% # Reads before turning the bus around for writes
system.mem_ctrls.rdPerTurnAround::80-87            34      0.00%     99.99% # Reads before turning the bus around for writes
system.mem_ctrls.rdPerTurnAround::88-95            37      0.00%     99.99% # Reads before turning the bus around for writes
system.mem_ctrls.rdPerTurnAround::96-103           42      0.00%     99.99% # Reads before turning the bus around for writes
system.mem_ctrls.rdPerTurnAround::104-111           54      0.00%    100.00% # Reads before turning the bus around for writes
system.mem_ctrls.rdPerTurnAround::112-119           18      0.00%    100.00% # Reads before turning the bus around for writes
system.mem_ctrls.rdPerTurnAround::120-127            4      0.00%    100.00% # Reads before turning the bus around for writes
system.mem_ctrls.rdPerTurnAround::128-135            1      0.00%    100.00% # Reads before turning the bus around for writes
system.mem_ctrls.rdPerTurnAround::144-151            1      0.00%    100.00% # Reads before turning the bus around for writes
system.mem_ctrls.rdPerTurnAround::160-167            1      0.00%    100.00% # Reads before turning the bus around for writes
system.mem_ctrls.rdPerTurnAround::total       1113400                       # Reads before turning the bus around for writes
system.mem_ctrls.wrPerTurnAround::samples      1113400                       # Writes before turning the bus around for reads
system.mem_ctrls.wrPerTurnAround::mean      16.025366                       # Writes before turning the bus around for reads
system.mem_ctrls.wrPerTurnAround::gmean     16.023465                       # Writes before turning the bus around for reads
system.mem_ctrls.wrPerTurnAround::stdev      0.262429                       # Writes before turning the bus around for reads
system.mem_ctrls.wrPerTurnAround::16          1101026     98.89%     98.89% # Writes before turning the bus around for reads
system.mem_ctrls.wrPerTurnAround::17             2286      0.21%     99.09% # Writes before turning the bus around for reads
system.mem_ctrls.wrPerTurnAround::18             6357      0.57%     99.66% # Writes before turning the bus around for reads
system.mem_ctrls.wrPerTurnAround::19             2127      0.19%     99.86% # Writes before turning the bus around for reads
system.mem_ctrls.wrPerTurnAround::20             1339      0.12%     99.98% # Writes before turning the bus around for reads
system.mem_ctrls.wrPerTurnAround::21              186      0.02%     99.99% # Writes before turning the bus around for reads
system.mem_ctrls.wrPerTurnAround::22               44      0.00%    100.00% # Writes before turning the bus around for reads
system.mem_ctrls.wrPerTurnAround::23               10      0.00%    100.00% # Writes before turning the bus around for reads
system.mem_ctrls.wrPerTurnAround::24                6      0.00%    100.00% # Writes before turning the bus around for reads
system.mem_ctrls.wrPerTurnAround::25                6      0.00%    100.00% # Writes before turning the bus around for reads
system.mem_ctrls.wrPerTurnAround::26                7      0.00%    100.00% # Writes before turning the bus around for reads
system.mem_ctrls.wrPerTurnAround::27                3      0.00%    100.00% # Writes before turning the bus around for reads
system.mem_ctrls.wrPerTurnAround::28                2      0.00%    100.00% # Writes before turning the bus around for reads
system.mem_ctrls.wrPerTurnAround::29                1      0.00%    100.00% # Writes before turning the bus around for reads
system.mem_ctrls.wrPerTurnAround::total       1113400                       # Writes before turning the bus around for reads
system.mem_ctrls.totQLat                 471291107196                       # Total ticks spent queuing
system.mem_ctrls.totMemAccLat            803222882196                       # Total ticks spent from burst creation until serviced by the DRAM
system.mem_ctrls.totBusLat                88515140000                       # Total ticks spent in databus transfers
system.mem_ctrls.avgQLat                     26622.06                       # Average queueing delay per DRAM burst
system.mem_ctrls.avgBusLat                    5000.00                       # Average bus latency per DRAM burst
system.mem_ctrls.avgMemAccLat                45372.06                       # Average memory access latency per DRAM burst
system.mem_ctrls.avgRdBW                       442.04                       # Average DRAM read bandwidth in MiByte/s
system.mem_ctrls.avgWrBW                       445.53                       # Average achieved write bandwidth in MiByte/s
system.mem_ctrls.avgRdBWSys                    445.61                       # Average system read bandwidth in MiByte/s
system.mem_ctrls.avgWrBWSys                    445.60                       # Average system write bandwidth in MiByte/s
system.mem_ctrls.peakBW                      12800.00                       # Theoretical peak bandwidth in MiByte/s
system.mem_ctrls.busUtil                         6.93                       # Data bus utilization in percentage
system.mem_ctrls.busUtilRead                     3.45                       # Data bus utilization in percentage for reads
system.mem_ctrls.busUtilWrite                    3.48                       # Data bus utilization in percentage for writes
system.mem_ctrls.avgRdQLen                       1.00                       # Average read queue length when enqueuing
system.mem_ctrls.avgWrQLen                      25.91                       # Average write queue length when enqueuing
system.mem_ctrls.readRowHits                  4134351                       # Number of row buffer hits during reads
system.mem_ctrls.writeRowHits                 6682377                       # Number of row buffer hits during writes
system.mem_ctrls.readRowHitRate                 23.35                       # Row buffer hit rate for reads
system.mem_ctrls.writeRowHitRate                37.45                       # Row buffer hit rate for writes
system.mem_ctrls.avgGap                      71812.22                       # Average gap between requests
system.mem_ctrls.pageHitRate                    30.43                       # Row buffer hit rate, read and write combined
system.mem_ctrls_0.actEnergy              87096809520                       # Energy for activate commands per rank (pJ)
system.mem_ctrls_0.preEnergy              47523060750                       # Energy for precharge commands per rank (pJ)
system.mem_ctrls_0.readEnergy             63842781600                       # Energy for read commands per rank (pJ)
system.mem_ctrls_0.writeEnergy            53392096080                       # Energy for write commands per rank (pJ)
system.mem_ctrls_0.refreshEnergy         167695625760                       # Energy for refresh commands per rank (pJ)
system.mem_ctrls_0.actBackEnergy         1179421610400                       # Energy for active background per rank (pJ)
system.mem_ctrls_0.preBackEnergy         505910671500                       # Energy for precharge background per rank (pJ)
system.mem_ctrls_0.totalEnergy           2104882655610                       # Total energy per rank (pJ)
system.mem_ctrls_0.averagePower            819.822750                       # Core power per rank (mW)
system.mem_ctrls_0.memoryStateTime::IDLE 833327473253                       # Time in different power states
system.mem_ctrls_0.memoryStateTime::REF   85587060000                       # Time in different power states
system.mem_ctrls_0.memoryStateTime::PRE_PDN            0                       # Time in different power states
system.mem_ctrls_0.memoryStateTime::ACT  1644171785247                       # Time in different power states
system.mem_ctrls_0.memoryStateTime::ACT_PDN            0                       # Time in different power states
system.mem_ctrls_1.actEnergy             100042523280                       # Energy for activate commands per rank (pJ)
system.mem_ctrls_1.preEnergy              54586694250                       # Energy for precharge commands per rank (pJ)
system.mem_ctrls_1.readEnergy             74490663000                       # Energy for read commands per rank (pJ)
system.mem_ctrls_1.writeEnergy            62410901760                       # Energy for write commands per rank (pJ)
system.mem_ctrls_1.refreshEnergy         167695625760                       # Energy for refresh commands per rank (pJ)
system.mem_ctrls_1.actBackEnergy         1180490471550                       # Energy for active background per rank (pJ)
system.mem_ctrls_1.preBackEnergy         504973074000                       # Energy for precharge background per rank (pJ)
system.mem_ctrls_1.totalEnergy           2144689953600                       # Total energy per rank (pJ)
system.mem_ctrls_1.averagePower            835.327143                       # Core power per rank (mW)
system.mem_ctrls_1.memoryStateTime::IDLE 831673593000                       # Time in different power states
system.mem_ctrls_1.memoryStateTime::REF   85587060000                       # Time in different power states
system.mem_ctrls_1.memoryStateTime::PRE_PDN            0                       # Time in different power states
system.mem_ctrls_1.memoryStateTime::ACT  1645824908250                       # Time in different power states
system.mem_ctrls_1.memoryStateTime::ACT_PDN            0                       # Time in different power states
system.cpu_voltage_domain.voltage                   1                       # Voltage in Volts
system.cpu_clk_domain.clock                       500                       # Clock period in ticks
system.cpu0.apic_clk_domain.clock                8000                       # Clock period in ticks
system.cpu0.numCycles                      5123533084                       # number of cpu cycles simulated
system.cpu0.numWorkItemsStarted                     0                       # number of work items this cpu started
system.cpu0.numWorkItemsCompleted                   0                       # number of work items this cpu completed
system.cpu0.kern.inst.arm                           0                       # number of arm instructions executed
system.cpu0.kern.inst.quiesce                       0                       # number of quiesce instructions executed
system.cpu0.committedInsts                    2035286                       # Number of instructions committed
system.cpu0.committedOps                      4445365                       # Number of ops (including micro ops) committed
system.cpu0.num_int_alu_accesses              4349077                       # Number of integer alu accesses
system.cpu0.num_fp_alu_accesses                     0                       # Number of float alu accesses
system.cpu0.num_func_calls                     131574                       # number of times a function call or return occured
system.cpu0.num_conditional_control_insts       293066                       # number of instructions that are conditional controls
system.cpu0.num_int_insts                     4349077                       # number of integer instructions
system.cpu0.num_fp_insts                            0                       # number of float instructions
system.cpu0.num_int_register_reads            8837849                       # number of times the integer registers were read
system.cpu0.num_int_register_writes           3605077                       # number of times the integer registers were written
system.cpu0.num_fp_register_reads                   0                       # number of times the floating registers were read
system.cpu0.num_fp_register_writes                  0                       # number of times the floating registers were written
system.cpu0.num_cc_register_reads             2452693                       # number of times the CC registers were read
system.cpu0.num_cc_register_writes            1327905                       # number of times the CC registers were written
system.cpu0.num_mem_refs                      1048088                       # number of memory refs
system.cpu0.num_load_insts                     646959                       # Number of load instructions
system.cpu0.num_store_insts                    401129                       # Number of store instructions
system.cpu0.num_idle_cycles              5107612561.448444                       # Number of idle cycles
system.cpu0.num_busy_cycles              15920522.551556                       # Number of busy cycles
system.cpu0.not_idle_fraction                0.003107                       # Percentage of non-idle cycles
system.cpu0.idle_fraction                    0.996893                       # Percentage of idle cycles
system.cpu0.Branches                           464690                       # Number of branches fetched
system.cpu0.op_class::No_OpClass                77716      1.75%      1.75% # Class of executed instruction
system.cpu0.op_class::IntAlu                  3285143     73.90%     75.65% # Class of executed instruction
system.cpu0.op_class::IntMult                    8360      0.19%     75.84% # Class of executed instruction
system.cpu0.op_class::IntDiv                    26061      0.59%     76.42% # Class of executed instruction
system.cpu0.op_class::FloatAdd                      0      0.00%     76.42% # Class of executed instruction
system.cpu0.op_class::FloatCmp                      0      0.00%     76.42% # Class of executed instruction
system.cpu0.op_class::FloatCvt                      0      0.00%     76.42% # Class of executed instruction
system.cpu0.op_class::FloatMult                     0      0.00%     76.42% # Class of executed instruction
system.cpu0.op_class::FloatDiv                      0      0.00%     76.42% # Class of executed instruction
system.cpu0.op_class::FloatSqrt                     0      0.00%     76.42% # Class of executed instruction
system.cpu0.op_class::SimdAdd                       0      0.00%     76.42% # Class of executed instruction
system.cpu0.op_class::SimdAddAcc                    0      0.00%     76.42% # Class of executed instruction
system.cpu0.op_class::SimdAlu                       0      0.00%     76.42% # Class of executed instruction
system.cpu0.op_class::SimdCmp                       0      0.00%     76.42% # Class of executed instruction
system.cpu0.op_class::SimdCvt                       0      0.00%     76.42% # Class of executed instruction
system.cpu0.op_class::SimdMisc                      0      0.00%     76.42% # Class of executed instruction
system.cpu0.op_class::SimdMult                      0      0.00%     76.42% # Class of executed instruction
system.cpu0.op_class::SimdMultAcc                   0      0.00%     76.42% # Class of executed instruction
system.cpu0.op_class::SimdShift                     0      0.00%     76.42% # Class of executed instruction
system.cpu0.op_class::SimdShiftAcc                  0      0.00%     76.42% # Class of executed instruction
system.cpu0.op_class::SimdSqrt                      0      0.00%     76.42% # Class of executed instruction
system.cpu0.op_class::SimdFloatAdd                  0      0.00%     76.42% # Class of executed instruction
system.cpu0.op_class::SimdFloatAlu                  0      0.00%     76.42% # Class of executed instruction
system.cpu0.op_class::SimdFloatCmp                  0      0.00%     76.42% # Class of executed instruction
system.cpu0.op_class::SimdFloatCvt                  0      0.00%     76.42% # Class of executed instruction
system.cpu0.op_class::SimdFloatDiv                  0      0.00%     76.42% # Class of executed instruction
system.cpu0.op_class::SimdFloatMisc                 0      0.00%     76.42% # Class of executed instruction
system.cpu0.op_class::SimdFloatMult                 0      0.00%     76.42% # Class of executed instruction
system.cpu0.op_class::SimdFloatMultAcc              0      0.00%     76.42% # Class of executed instruction
system.cpu0.op_class::SimdFloatSqrt                 0      0.00%     76.42% # Class of executed instruction
system.cpu0.op_class::MemRead                  646959     14.55%     90.98% # Class of executed instruction
system.cpu0.op_class::MemWrite                 401129      9.02%    100.00% # Class of executed instruction
system.cpu0.op_class::IprAccess                     0      0.00%    100.00% # Class of executed instruction
system.cpu0.op_class::InstPrefetch                  0      0.00%    100.00% # Class of executed instruction
system.cpu0.op_class::total                   4445368                       # Class of executed instruction
system.cpu1.apic_clk_domain.clock                8000                       # Clock period in ticks
system.cpu1.numCycles                      5123390950                       # number of cpu cycles simulated
system.cpu1.numWorkItemsStarted                     0                       # number of work items this cpu started
system.cpu1.numWorkItemsCompleted                   0                       # number of work items this cpu completed
system.cpu1.kern.inst.arm                           0                       # number of arm instructions executed
system.cpu1.kern.inst.quiesce                       0                       # number of quiesce instructions executed
system.cpu1.committedInsts                    4328658                       # Number of instructions committed
system.cpu1.committedOps                      8735433                       # Number of ops (including micro ops) committed
system.cpu1.num_int_alu_accesses              8575937                       # Number of integer alu accesses
system.cpu1.num_fp_alu_accesses                  1893                       # Number of float alu accesses
system.cpu1.num_func_calls                     230163                       # number of times a function call or return occured
system.cpu1.num_conditional_control_insts       718528                       # number of instructions that are conditional controls
system.cpu1.num_int_insts                     8575937                       # number of integer instructions
system.cpu1.num_fp_insts                         1893                       # number of float instructions
system.cpu1.num_int_register_reads           17107746                       # number of times the integer registers were read
system.cpu1.num_int_register_writes           6991331                       # number of times the integer registers were written
system.cpu1.num_fp_register_reads                3183                       # number of times the floating registers were read
system.cpu1.num_fp_register_writes               1511                       # number of times the floating registers were written
system.cpu1.num_cc_register_reads             5412366                       # number of times the CC registers were read
system.cpu1.num_cc_register_writes            2921016                       # number of times the CC registers were written
system.cpu1.num_mem_refs                      1994243                       # number of memory refs
system.cpu1.num_load_insts                    1286937                       # Number of load instructions
system.cpu1.num_store_insts                    707306                       # Number of store instructions
system.cpu1.num_idle_cycles              5085152028.373485                       # Number of idle cycles
system.cpu1.num_busy_cycles              38238921.626516                       # Number of busy cycles
system.cpu1.not_idle_fraction                0.007464                       # Percentage of non-idle cycles
system.cpu1.idle_fraction                    0.992536                       # Percentage of idle cycles
system.cpu1.Branches                           994139                       # Number of branches fetched
system.cpu1.op_class::No_OpClass                72563      0.83%      0.83% # Class of executed instruction
system.cpu1.op_class::IntAlu                  6632737     75.93%     76.76% # Class of executed instruction
system.cpu1.op_class::IntMult                   10568      0.12%     76.88% # Class of executed instruction
system.cpu1.op_class::IntDiv                    23978      0.27%     77.15% # Class of executed instruction
system.cpu1.op_class::FloatAdd                   1434      0.02%     77.17% # Class of executed instruction
system.cpu1.op_class::FloatCmp                      0      0.00%     77.17% # Class of executed instruction
system.cpu1.op_class::FloatCvt                      0      0.00%     77.17% # Class of executed instruction
system.cpu1.op_class::FloatMult                     0      0.00%     77.17% # Class of executed instruction
system.cpu1.op_class::FloatDiv                      0      0.00%     77.17% # Class of executed instruction
system.cpu1.op_class::FloatSqrt                     0      0.00%     77.17% # Class of executed instruction
system.cpu1.op_class::SimdAdd                       0      0.00%     77.17% # Class of executed instruction
system.cpu1.op_class::SimdAddAcc                    0      0.00%     77.17% # Class of executed instruction
system.cpu1.op_class::SimdAlu                       0      0.00%     77.17% # Class of executed instruction
system.cpu1.op_class::SimdCmp                       0      0.00%     77.17% # Class of executed instruction
system.cpu1.op_class::SimdCvt                       0      0.00%     77.17% # Class of executed instruction
system.cpu1.op_class::SimdMisc                      0      0.00%     77.17% # Class of executed instruction
system.cpu1.op_class::SimdMult                      0      0.00%     77.17% # Class of executed instruction
system.cpu1.op_class::SimdMultAcc                   0      0.00%     77.17% # Class of executed instruction
system.cpu1.op_class::SimdShift                     0      0.00%     77.17% # Class of executed instruction
system.cpu1.op_class::SimdShiftAcc                  0      0.00%     77.17% # Class of executed instruction
system.cpu1.op_class::SimdSqrt                      0      0.00%     77.17% # Class of executed instruction
system.cpu1.op_class::SimdFloatAdd                  0      0.00%     77.17% # Class of executed instruction
system.cpu1.op_class::SimdFloatAlu                  0      0.00%     77.17% # Class of executed instruction
system.cpu1.op_class::SimdFloatCmp                  0      0.00%     77.17% # Class of executed instruction
system.cpu1.op_class::SimdFloatCvt                  0      0.00%     77.17% # Class of executed instruction
system.cpu1.op_class::SimdFloatDiv                  0      0.00%     77.17% # Class of executed instruction
system.cpu1.op_class::SimdFloatMisc                 0      0.00%     77.17% # Class of executed instruction
system.cpu1.op_class::SimdFloatMult                 0      0.00%     77.17% # Class of executed instruction
system.cpu1.op_class::SimdFloatMultAcc              0      0.00%     77.17% # Class of executed instruction
system.cpu1.op_class::SimdFloatSqrt                 0      0.00%     77.17% # Class of executed instruction
system.cpu1.op_class::MemRead                 1286937     14.73%     91.90% # Class of executed instruction
system.cpu1.op_class::MemWrite                 707306      8.10%    100.00% # Class of executed instruction
system.cpu1.op_class::IprAccess                     0      0.00%    100.00% # Class of executed instruction
system.cpu1.op_class::InstPrefetch                  0      0.00%    100.00% # Class of executed instruction
system.cpu1.op_class::total                   8735523                       # Class of executed instruction
system.cpu2.apic_clk_domain.clock                8000                       # Clock period in ticks
system.cpu2.numCycles                      5124092559                       # number of cpu cycles simulated
system.cpu2.numWorkItemsStarted                     0                       # number of work items this cpu started
system.cpu2.numWorkItemsCompleted                   0                       # number of work items this cpu completed
system.cpu2.kern.inst.arm                           0                       # number of arm instructions executed
system.cpu2.kern.inst.quiesce                       0                       # number of quiesce instructions executed
system.cpu2.committedInsts                    1842712                       # Number of instructions committed
system.cpu2.committedOps                      3976802                       # Number of ops (including micro ops) committed
system.cpu2.num_int_alu_accesses              3887893                       # Number of integer alu accesses
system.cpu2.num_fp_alu_accesses                    39                       # Number of float alu accesses
system.cpu2.num_func_calls                     108798                       # number of times a function call or return occured
system.cpu2.num_conditional_control_insts       280971                       # number of instructions that are conditional controls
system.cpu2.num_int_insts                     3887893                       # number of integer instructions
system.cpu2.num_fp_insts                           39                       # number of float instructions
system.cpu2.num_int_register_reads            7907579                       # number of times the integer registers were read
system.cpu2.num_int_register_writes           3227254                       # number of times the integer registers were written
system.cpu2.num_fp_register_reads                  63                       # number of times the floating registers were read
system.cpu2.num_fp_register_writes                 31                       # number of times the floating registers were written
system.cpu2.num_cc_register_reads             2251344                       # number of times the CC registers were read
system.cpu2.num_cc_register_writes            1176069                       # number of times the CC registers were written
system.cpu2.num_mem_refs                       946206                       # number of memory refs
system.cpu2.num_load_insts                     587076                       # Number of load instructions
system.cpu2.num_store_insts                    359130                       # Number of store instructions
system.cpu2.num_idle_cycles              5108832228.542176                       # Number of idle cycles
system.cpu2.num_busy_cycles              15260330.457823                       # Number of busy cycles
system.cpu2.not_idle_fraction                0.002978                       # Percentage of non-idle cycles
system.cpu2.idle_fraction                    0.997022                       # Percentage of idle cycles
system.cpu2.Branches                           425594                       # Number of branches fetched
system.cpu2.op_class::No_OpClass                76254      1.92%      1.92% # Class of executed instruction
system.cpu2.op_class::IntAlu                  2919382     73.41%     75.33% # Class of executed instruction
system.cpu2.op_class::IntMult                    7800      0.20%     75.52% # Class of executed instruction
system.cpu2.op_class::IntDiv                    27152      0.68%     76.21% # Class of executed instruction
system.cpu2.op_class::FloatAdd                     30      0.00%     76.21% # Class of executed instruction
system.cpu2.op_class::FloatCmp                      0      0.00%     76.21% # Class of executed instruction
system.cpu2.op_class::FloatCvt                      0      0.00%     76.21% # Class of executed instruction
system.cpu2.op_class::FloatMult                     0      0.00%     76.21% # Class of executed instruction
system.cpu2.op_class::FloatDiv                      0      0.00%     76.21% # Class of executed instruction
system.cpu2.op_class::FloatSqrt                     0      0.00%     76.21% # Class of executed instruction
system.cpu2.op_class::SimdAdd                       0      0.00%     76.21% # Class of executed instruction
system.cpu2.op_class::SimdAddAcc                    0      0.00%     76.21% # Class of executed instruction
system.cpu2.op_class::SimdAlu                       0      0.00%     76.21% # Class of executed instruction
system.cpu2.op_class::SimdCmp                       0      0.00%     76.21% # Class of executed instruction
system.cpu2.op_class::SimdCvt                       0      0.00%     76.21% # Class of executed instruction
system.cpu2.op_class::SimdMisc                      0      0.00%     76.21% # Class of executed instruction
system.cpu2.op_class::SimdMult                      0      0.00%     76.21% # Class of executed instruction
system.cpu2.op_class::SimdMultAcc                   0      0.00%     76.21% # Class of executed instruction
system.cpu2.op_class::SimdShift                     0      0.00%     76.21% # Class of executed instruction
system.cpu2.op_class::SimdShiftAcc                  0      0.00%     76.21% # Class of executed instruction
system.cpu2.op_class::SimdSqrt                      0      0.00%     76.21% # Class of executed instruction
system.cpu2.op_class::SimdFloatAdd                  0      0.00%     76.21% # Class of executed instruction
system.cpu2.op_class::SimdFloatAlu                  0      0.00%     76.21% # Class of executed instruction
system.cpu2.op_class::SimdFloatCmp                  0      0.00%     76.21% # Class of executed instruction
system.cpu2.op_class::SimdFloatCvt                  0      0.00%     76.21% # Class of executed instruction
system.cpu2.op_class::SimdFloatDiv                  0      0.00%     76.21% # Class of executed instruction
system.cpu2.op_class::SimdFloatMisc                 0      0.00%     76.21% # Class of executed instruction
system.cpu2.op_class::SimdFloatMult                 0      0.00%     76.21% # Class of executed instruction
system.cpu2.op_class::SimdFloatMultAcc              0      0.00%     76.21% # Class of executed instruction
system.cpu2.op_class::SimdFloatSqrt                 0      0.00%     76.21% # Class of executed instruction
system.cpu2.op_class::MemRead                  587076     14.76%     90.97% # Class of executed instruction
system.cpu2.op_class::MemWrite                 359130      9.03%    100.00% # Class of executed instruction
system.cpu2.op_class::IprAccess                     0      0.00%    100.00% # Class of executed instruction
system.cpu2.op_class::InstPrefetch                  0      0.00%    100.00% # Class of executed instruction
system.cpu2.op_class::total                   3976824                       # Class of executed instruction
system.cpu3.apic_clk_domain.clock                8000                       # Clock period in ticks
system.cpu3.numCycles                      5129033837                       # number of cpu cycles simulated
system.cpu3.numWorkItemsStarted                     0                       # number of work items this cpu started
system.cpu3.numWorkItemsCompleted                   0                       # number of work items this cpu completed
system.cpu3.kern.inst.arm                           0                       # number of arm instructions executed
system.cpu3.kern.inst.quiesce                       0                       # number of quiesce instructions executed
system.cpu3.committedInsts                  717338661                       # Number of instructions committed
system.cpu3.committedOps                   1064818942                       # Number of ops (including micro ops) committed
system.cpu3.num_int_alu_accesses            464323879                       # Number of integer alu accesses
system.cpu3.num_fp_alu_accesses             708837843                       # Number of float alu accesses
system.cpu3.num_func_calls                     913135                       # number of times a function call or return occured
system.cpu3.num_conditional_control_insts     10855562                       # number of instructions that are conditional controls
system.cpu3.num_int_insts                   464323879                       # number of integer instructions
system.cpu3.num_fp_insts                    708837843                       # number of float instructions
system.cpu3.num_int_register_reads          972756365                       # number of times the integer registers were read
system.cpu3.num_int_register_writes         344127506                       # number of times the integer registers were written
system.cpu3.num_fp_register_reads          1593836311                       # number of times the floating registers were read
system.cpu3.num_fp_register_writes          654311799                       # number of times the floating registers were written
system.cpu3.num_cc_register_reads           111834074                       # number of times the CC registers were read
system.cpu3.num_cc_register_writes          201749852                       # number of times the CC registers were written
system.cpu3.num_mem_refs                    129460272                       # number of memory refs
system.cpu3.num_load_insts                   75512532                       # Number of load instructions
system.cpu3.num_store_insts                  53947740                       # Number of store instructions
system.cpu3.num_idle_cycles              17270773.451989                       # Number of idle cycles
system.cpu3.num_busy_cycles              5111763063.548012                       # Number of busy cycles
system.cpu3.not_idle_fraction                0.996633                       # Percentage of non-idle cycles
system.cpu3.idle_fraction                    0.003367                       # Percentage of idle cycles
system.cpu3.Branches                         12063048                       # Number of branches fetched
system.cpu3.op_class::No_OpClass               316948      0.03%      0.03% # Class of executed instruction
system.cpu3.op_class::IntAlu                431649351     40.54%     40.57% # Class of executed instruction
system.cpu3.op_class::IntMult                   89755      0.01%     40.57% # Class of executed instruction
system.cpu3.op_class::IntDiv                     2343      0.00%     40.58% # Class of executed instruction
system.cpu3.op_class::FloatAdd              503316796     47.27%     87.84% # Class of executed instruction
system.cpu3.op_class::FloatCmp                      0      0.00%     87.84% # Class of executed instruction
system.cpu3.op_class::FloatCvt                      0      0.00%     87.84% # Class of executed instruction
system.cpu3.op_class::FloatMult                     0      0.00%     87.84% # Class of executed instruction
system.cpu3.op_class::FloatDiv                      0      0.00%     87.84% # Class of executed instruction
system.cpu3.op_class::FloatSqrt                     0      0.00%     87.84% # Class of executed instruction
system.cpu3.op_class::SimdAdd                       0      0.00%     87.84% # Class of executed instruction
system.cpu3.op_class::SimdAddAcc                    0      0.00%     87.84% # Class of executed instruction
system.cpu3.op_class::SimdAlu                       0      0.00%     87.84% # Class of executed instruction
system.cpu3.op_class::SimdCmp                       0      0.00%     87.84% # Class of executed instruction
system.cpu3.op_class::SimdCvt                       0      0.00%     87.84% # Class of executed instruction
system.cpu3.op_class::SimdMisc                      0      0.00%     87.84% # Class of executed instruction
system.cpu3.op_class::SimdMult                      0      0.00%     87.84% # Class of executed instruction
system.cpu3.op_class::SimdMultAcc                   0      0.00%     87.84% # Class of executed instruction
system.cpu3.op_class::SimdShift                     0      0.00%     87.84% # Class of executed instruction
system.cpu3.op_class::SimdShiftAcc                  0      0.00%     87.84% # Class of executed instruction
system.cpu3.op_class::SimdSqrt                      0      0.00%     87.84% # Class of executed instruction
system.cpu3.op_class::SimdFloatAdd                  0      0.00%     87.84% # Class of executed instruction
system.cpu3.op_class::SimdFloatAlu                  0      0.00%     87.84% # Class of executed instruction
system.cpu3.op_class::SimdFloatCmp                  0      0.00%     87.84% # Class of executed instruction
system.cpu3.op_class::SimdFloatCvt                  0      0.00%     87.84% # Class of executed instruction
system.cpu3.op_class::SimdFloatDiv                  0      0.00%     87.84% # Class of executed instruction
system.cpu3.op_class::SimdFloatMisc                 0      0.00%     87.84% # Class of executed instruction
system.cpu3.op_class::SimdFloatMult                 0      0.00%     87.84% # Class of executed instruction
system.cpu3.op_class::SimdFloatMultAcc              0      0.00%     87.84% # Class of executed instruction
system.cpu3.op_class::SimdFloatSqrt                 0      0.00%     87.84% # Class of executed instruction
system.cpu3.op_class::MemRead                75512532      7.09%     94.93% # Class of executed instruction
system.cpu3.op_class::MemWrite               53947740      5.07%    100.00% # Class of executed instruction
system.cpu3.op_class::IprAccess                     0      0.00%    100.00% # Class of executed instruction
system.cpu3.op_class::InstPrefetch                  0      0.00%    100.00% # Class of executed instruction
system.cpu3.op_class::total                1064835465                       # Class of executed instruction
system.iobus.trans_dist::ReadReq                   85                       # Transaction distribution
system.iobus.trans_dist::ReadResp                  85                       # Transaction distribution
system.iobus.trans_dist::WriteReq                2629                       # Transaction distribution
system.iobus.trans_dist::WriteResp               2629                       # Transaction distribution
system.iobus.trans_dist::MessageReq                14                       # Transaction distribution
system.iobus.trans_dist::MessageResp               14                       # Transaction distribution
system.iobus.pkt_count_system.pc.south_bridge.io_apic.int_master::system.ruby.l1_cntrl0.sequencer.pio-slave-port            2                       # Packet count per connected master and slave (bytes)
system.iobus.pkt_count_system.pc.south_bridge.io_apic.int_master::system.ruby.l1_cntrl1.sequencer.pio-slave-port            4                       # Packet count per connected master and slave (bytes)
system.iobus.pkt_count_system.pc.south_bridge.io_apic.int_master::system.ruby.l1_cntrl2.sequencer.pio-slave-port            4                       # Packet count per connected master and slave (bytes)
system.iobus.pkt_count_system.pc.south_bridge.io_apic.int_master::system.ruby.l1_cntrl3.sequencer.pio-slave-port            2                       # Packet count per connected master and slave (bytes)
system.iobus.pkt_count_system.pc.south_bridge.io_apic.int_master::total           12                       # Packet count per connected master and slave (bytes)
system.iobus.pkt_count_system.ruby.l1_cntrl0.sequencer.mem-master-port::system.pc.south_bridge.io_apic.pio            6                       # Packet count per connected master and slave (bytes)
system.iobus.pkt_count_system.ruby.l1_cntrl0.sequencer.mem-master-port::system.pc.com_1.pio           22                       # Packet count per connected master and slave (bytes)
system.iobus.pkt_count_system.ruby.l1_cntrl0.sequencer.mem-master-port::system.ruby.l1_cntrl0.sequencer.pio-slave-port         1294                       # Packet count per connected master and slave (bytes)
system.iobus.pkt_count_system.ruby.l1_cntrl0.sequencer.mem-master-port::system.ruby.l1_cntrl1.sequencer.pio-slave-port            2                       # Packet count per connected master and slave (bytes)
system.iobus.pkt_count_system.ruby.l1_cntrl0.sequencer.mem-master-port::total         1324                       # Packet count per connected master and slave (bytes)
system.iobus.pkt_count_system.ruby.l1_cntrl1.sequencer.mem-master-port::system.pc.south_bridge.io_apic.pio           14                       # Packet count per connected master and slave (bytes)
system.iobus.pkt_count_system.ruby.l1_cntrl1.sequencer.mem-master-port::system.pc.com_1.pio          162                       # Packet count per connected master and slave (bytes)
system.iobus.pkt_count_system.ruby.l1_cntrl1.sequencer.mem-master-port::system.ruby.l1_cntrl0.sequencer.pio-slave-port            2                       # Packet count per connected master and slave (bytes)
system.iobus.pkt_count_system.ruby.l1_cntrl1.sequencer.mem-master-port::system.ruby.l1_cntrl1.sequencer.pio-slave-port         1306                       # Packet count per connected master and slave (bytes)
system.iobus.pkt_count_system.ruby.l1_cntrl1.sequencer.mem-master-port::system.ruby.l1_cntrl2.sequencer.pio-slave-port            2                       # Packet count per connected master and slave (bytes)
system.iobus.pkt_count_system.ruby.l1_cntrl1.sequencer.mem-master-port::system.ruby.l1_cntrl3.sequencer.pio-slave-port            2                       # Packet count per connected master and slave (bytes)
system.iobus.pkt_count_system.ruby.l1_cntrl1.sequencer.mem-master-port::total         1488                       # Packet count per connected master and slave (bytes)
system.iobus.pkt_count_system.ruby.l1_cntrl2.sequencer.mem-master-port::system.pc.south_bridge.io_apic.pio           16                       # Packet count per connected master and slave (bytes)
system.iobus.pkt_count_system.ruby.l1_cntrl2.sequencer.mem-master-port::system.ruby.l1_cntrl2.sequencer.pio-slave-port         1294                       # Packet count per connected master and slave (bytes)
system.iobus.pkt_count_system.ruby.l1_cntrl2.sequencer.mem-master-port::system.ruby.l1_cntrl3.sequencer.pio-slave-port            2                       # Packet count per connected master and slave (bytes)
system.iobus.pkt_count_system.ruby.l1_cntrl2.sequencer.mem-master-port::total         1312                       # Packet count per connected master and slave (bytes)
system.iobus.pkt_count_system.ruby.l1_cntrl3.sequencer.mem-master-port::system.pc.south_bridge.io_apic.pio            8                       # Packet count per connected master and slave (bytes)
system.iobus.pkt_count_system.ruby.l1_cntrl3.sequencer.mem-master-port::system.ruby.l1_cntrl0.sequencer.pio-slave-port            2                       # Packet count per connected master and slave (bytes)
system.iobus.pkt_count_system.ruby.l1_cntrl3.sequencer.mem-master-port::system.ruby.l1_cntrl1.sequencer.pio-slave-port            2                       # Packet count per connected master and slave (bytes)
system.iobus.pkt_count_system.ruby.l1_cntrl3.sequencer.mem-master-port::system.ruby.l1_cntrl2.sequencer.pio-slave-port            2                       # Packet count per connected master and slave (bytes)
system.iobus.pkt_count_system.ruby.l1_cntrl3.sequencer.mem-master-port::system.ruby.l1_cntrl3.sequencer.pio-slave-port         1306                       # Packet count per connected master and slave (bytes)
system.iobus.pkt_count_system.ruby.l1_cntrl3.sequencer.mem-master-port::total         1320                       # Packet count per connected master and slave (bytes)
system.iobus.pkt_count::total                    5456                       # Packet count per connected master and slave (bytes)
system.iobus.pkt_size_system.pc.south_bridge.io_apic.int_master::system.ruby.l1_cntrl0.sequencer.pio-slave-port            4                       # Cumulative packet size per connected master and slave (bytes)
system.iobus.pkt_size_system.pc.south_bridge.io_apic.int_master::system.ruby.l1_cntrl1.sequencer.pio-slave-port            8                       # Cumulative packet size per connected master and slave (bytes)
system.iobus.pkt_size_system.pc.south_bridge.io_apic.int_master::system.ruby.l1_cntrl2.sequencer.pio-slave-port            8                       # Cumulative packet size per connected master and slave (bytes)
system.iobus.pkt_size_system.pc.south_bridge.io_apic.int_master::system.ruby.l1_cntrl3.sequencer.pio-slave-port            4                       # Cumulative packet size per connected master and slave (bytes)
system.iobus.pkt_size_system.pc.south_bridge.io_apic.int_master::total           24                       # Cumulative packet size per connected master and slave (bytes)
system.iobus.pkt_size_system.ruby.l1_cntrl0.sequencer.mem-master-port::system.pc.south_bridge.io_apic.pio           12                       # Cumulative packet size per connected master and slave (bytes)
system.iobus.pkt_size_system.ruby.l1_cntrl0.sequencer.mem-master-port::system.pc.com_1.pio           11                       # Cumulative packet size per connected master and slave (bytes)
system.iobus.pkt_size_system.ruby.l1_cntrl0.sequencer.mem-master-port::system.ruby.l1_cntrl0.sequencer.pio-slave-port         2588                       # Cumulative packet size per connected master and slave (bytes)
system.iobus.pkt_size_system.ruby.l1_cntrl0.sequencer.mem-master-port::system.ruby.l1_cntrl1.sequencer.pio-slave-port            4                       # Cumulative packet size per connected master and slave (bytes)
system.iobus.pkt_size_system.ruby.l1_cntrl0.sequencer.mem-master-port::total         2615                       # Cumulative packet size per connected master and slave (bytes)
system.iobus.pkt_size_system.ruby.l1_cntrl1.sequencer.mem-master-port::system.pc.south_bridge.io_apic.pio           28                       # Cumulative packet size per connected master and slave (bytes)
system.iobus.pkt_size_system.ruby.l1_cntrl1.sequencer.mem-master-port::system.pc.com_1.pio           81                       # Cumulative packet size per connected master and slave (bytes)
system.iobus.pkt_size_system.ruby.l1_cntrl1.sequencer.mem-master-port::system.ruby.l1_cntrl0.sequencer.pio-slave-port            4                       # Cumulative packet size per connected master and slave (bytes)
system.iobus.pkt_size_system.ruby.l1_cntrl1.sequencer.mem-master-port::system.ruby.l1_cntrl1.sequencer.pio-slave-port         2612                       # Cumulative packet size per connected master and slave (bytes)
system.iobus.pkt_size_system.ruby.l1_cntrl1.sequencer.mem-master-port::system.ruby.l1_cntrl2.sequencer.pio-slave-port            4                       # Cumulative packet size per connected master and slave (bytes)
system.iobus.pkt_size_system.ruby.l1_cntrl1.sequencer.mem-master-port::system.ruby.l1_cntrl3.sequencer.pio-slave-port            4                       # Cumulative packet size per connected master and slave (bytes)
system.iobus.pkt_size_system.ruby.l1_cntrl1.sequencer.mem-master-port::total         2733                       # Cumulative packet size per connected master and slave (bytes)
system.iobus.pkt_size_system.ruby.l1_cntrl2.sequencer.mem-master-port::system.pc.south_bridge.io_apic.pio           32                       # Cumulative packet size per connected master and slave (bytes)
system.iobus.pkt_size_system.ruby.l1_cntrl2.sequencer.mem-master-port::system.ruby.l1_cntrl2.sequencer.pio-slave-port         2588                       # Cumulative packet size per connected master and slave (bytes)
system.iobus.pkt_size_system.ruby.l1_cntrl2.sequencer.mem-master-port::system.ruby.l1_cntrl3.sequencer.pio-slave-port            4                       # Cumulative packet size per connected master and slave (bytes)
system.iobus.pkt_size_system.ruby.l1_cntrl2.sequencer.mem-master-port::total         2624                       # Cumulative packet size per connected master and slave (bytes)
system.iobus.pkt_size_system.ruby.l1_cntrl3.sequencer.mem-master-port::system.pc.south_bridge.io_apic.pio           16                       # Cumulative packet size per connected master and slave (bytes)
system.iobus.pkt_size_system.ruby.l1_cntrl3.sequencer.mem-master-port::system.ruby.l1_cntrl0.sequencer.pio-slave-port            4                       # Cumulative packet size per connected master and slave (bytes)
system.iobus.pkt_size_system.ruby.l1_cntrl3.sequencer.mem-master-port::system.ruby.l1_cntrl1.sequencer.pio-slave-port            4                       # Cumulative packet size per connected master and slave (bytes)
system.iobus.pkt_size_system.ruby.l1_cntrl3.sequencer.mem-master-port::system.ruby.l1_cntrl2.sequencer.pio-slave-port            4                       # Cumulative packet size per connected master and slave (bytes)
system.iobus.pkt_size_system.ruby.l1_cntrl3.sequencer.mem-master-port::system.ruby.l1_cntrl3.sequencer.pio-slave-port         2612                       # Cumulative packet size per connected master and slave (bytes)
system.iobus.pkt_size_system.ruby.l1_cntrl3.sequencer.mem-master-port::total         2640                       # Cumulative packet size per connected master and slave (bytes)
system.iobus.pkt_size::total                    10636                       # Cumulative packet size per connected master and slave (bytes)
system.iobus.reqLayer8.occupancy                36996                       # Layer occupancy (ticks)
system.iobus.reqLayer8.utilization                0.0                       # Layer utilization (%)
system.iobus.reqLayer12.occupancy              119000                       # Layer occupancy (ticks)
system.iobus.reqLayer12.utilization               0.0                       # Layer utilization (%)
system.iobus.reqLayer17.occupancy             1567000                       # Layer occupancy (ticks)
system.iobus.reqLayer17.utilization               0.0                       # Layer utilization (%)
system.iobus.reqLayer18.occupancy             1437998                       # Layer occupancy (ticks)
system.iobus.reqLayer18.utilization               0.0                       # Layer utilization (%)
system.iobus.reqLayer19.occupancy             1576500                       # Layer occupancy (ticks)
system.iobus.reqLayer19.utilization               0.0                       # Layer utilization (%)
system.iobus.reqLayer20.occupancy             1695567                       # Layer occupancy (ticks)
system.iobus.reqLayer20.utilization               0.0                       # Layer utilization (%)
system.iobus.respLayer0.occupancy                8500                       # Layer occupancy (ticks)
system.iobus.respLayer0.utilization               0.0                       # Layer utilization (%)
system.iobus.respLayer2.occupancy              995500                       # Layer occupancy (ticks)
system.iobus.respLayer2.utilization               0.0                       # Layer utilization (%)
system.iobus.respLayer4.occupancy             1135500                       # Layer occupancy (ticks)
system.iobus.respLayer4.utilization               0.0                       # Layer utilization (%)
system.iobus.respLayer6.occupancy              984500                       # Layer occupancy (ticks)
system.iobus.respLayer6.utilization               0.0                       # Layer utilization (%)
system.iobus.respLayer8.occupancy              992500                       # Layer occupancy (ticks)
system.iobus.respLayer8.utilization               0.0                       # Layer utilization (%)
system.pc.south_bridge.ide.disks.dma_read_full_pages            0                       # Number of full page size DMA reads (not PRD).
system.pc.south_bridge.ide.disks.dma_read_bytes            0                       # Number of bytes transfered via DMA reads (not PRD).
system.pc.south_bridge.ide.disks.dma_read_txs            0                       # Number of DMA read transactions (not PRD).
system.pc.south_bridge.ide.disks.dma_write_full_pages            0                       # Number of full page size DMA writes.
system.pc.south_bridge.ide.disks.dma_write_bytes            0                       # Number of bytes transfered via DMA writes.
system.pc.south_bridge.ide.disks.dma_write_txs            0                       # Number of DMA write transactions.
system.ruby.clk_domain.clock                      500                       # Clock period in ticks
system.ruby.delayHist::bucket_size                  2                       # delay histogram for all message
system.ruby.delayHist::max_bucket                  19                       # delay histogram for all message
system.ruby.delayHist::samples               36631230                       # delay histogram for all message
system.ruby.delayHist::mean                  0.003134                       # delay histogram for all message
system.ruby.delayHist::stdev                 0.152711                       # delay histogram for all message
system.ruby.delayHist                    |    36613762     99.95%     99.95% |        2046      0.01%     99.96% |        1826      0.00%     99.96% |        3793      0.01%     99.97% |        9467      0.03%    100.00% |          55      0.00%    100.00% |          46      0.00%    100.00% |          67      0.00%    100.00% |          72      0.00%    100.00% |          96      0.00%    100.00% # delay histogram for all message
system.ruby.delayHist::total                 36631230                       # delay histogram for all message
system.ruby.outstanding_req_hist_seqr::bucket_size            1                      
system.ruby.outstanding_req_hist_seqr::max_bucket            9                      
system.ruby.outstanding_req_hist_seqr::samples   1229345592                      
system.ruby.outstanding_req_hist_seqr::mean     1.000000                      
system.ruby.outstanding_req_hist_seqr::gmean     1.000000                      
system.ruby.outstanding_req_hist_seqr::stdev     0.000432                      
system.ruby.outstanding_req_hist_seqr    |           0      0.00%      0.00% |  1229345363    100.00%    100.00% |         229      0.00%    100.00% |           0      0.00%    100.00% |           0      0.00%    100.00% |           0      0.00%    100.00% |           0      0.00%    100.00% |           0      0.00%    100.00% |           0      0.00%    100.00% |           0      0.00%    100.00%
system.ruby.outstanding_req_hist_seqr::total   1229345592                      
system.ruby.latency_hist_seqr::bucket_size          256                      
system.ruby.latency_hist_seqr::max_bucket         2559                      
system.ruby.latency_hist_seqr::samples     1229345592                      
system.ruby.latency_hist_seqr::mean          3.211822                      
system.ruby.latency_hist_seqr::gmean         1.076049                      
[...]
system.ruby.LD.L1Cache.miss_type_mach_latency_hist_seqr::stdev     1.919649                      
system.ruby.LD.L1Cache.miss_type_mach_latency_hist_seqr |           0      0.00%      0.00% |           0      0.00%      0.00% |      122303     68.49%     68.49% |       56260     31.51%     99.99% |           7      0.00%    100.00% |           1      0.00%    100.00% |           2      0.00%    100.00% |           1      0.00%    100.00% |           0      0.00%    100.00% |           0      0.00%    100.00%
system.ruby.LD.L1Cache.miss_type_mach_latency_hist_seqr::total       178574                      
system.ruby.LD.Directory.miss_type_mach_latency_hist_seqr::bucket_size          256                      
system.ruby.LD.Directory.miss_type_mach_latency_hist_seqr::max_bucket         2559                      
system.ruby.LD.Directory.miss_type_mach_latency_hist_seqr::samples     18113041                      
system.ruby.LD.Directory.miss_type_mach_latency_hist_seqr::mean   146.798382                      
system.ruby.LD.Directory.miss_type_mach_latency_hist_seqr::gmean   134.767565                      
system.ruby.LD.Directory.miss_type_mach_latency_hist_seqr::stdev    80.897926                      
system.ruby.LD.Directory.miss_type_mach_latency_hist_seqr |    16764005     92.55%     92.55% |     1134373      6.26%     98.81% |      203415      1.12%     99.94% |        9825      0.05%     99.99% |        1412      0.01%    100.00% |           7      0.00%    100.00% |           4      0.00%    100.00% |           0      0.00%    100.00% |           0      0.00%    100.00% |           0      0.00%    100.00%
system.ruby.LD.Directory.miss_type_mach_latency_hist_seqr::total     18113041                      
system.ruby.ST.L1Cache.miss_type_mach_latency_hist_seqr::bucket_size            8                      
system.ruby.ST.L1Cache.miss_type_mach_latency_hist_seqr::max_bucket           79                      
system.ruby.ST.L1Cache.miss_type_mach_latency_hist_seqr::samples         6367                      
system.ruby.ST.L1Cache.miss_type_mach_latency_hist_seqr::mean    47.314120                      
system.ruby.ST.L1Cache.miss_type_mach_latency_hist_seqr::gmean    47.268624                      
system.ruby.ST.L1Cache.miss_type_mach_latency_hist_seqr::stdev     2.074324                      
system.ruby.ST.L1Cache.miss_type_mach_latency_hist_seqr |           0      0.00%      0.00% |           0      0.00%      0.00% |           0      0.00%      0.00% |           0      0.00%      0.00% |           0      0.00%      0.00% |        2775     43.58%     43.58% |        3590     56.38%     99.97% |           2      0.03%    100.00% |           0      0.00%    100.00% |           0      0.00%    100.00%
system.ruby.ST.L1Cache.miss_type_mach_latency_hist_seqr::total         6367                      
system.ruby.ST.Directory.miss_type_mach_latency_hist_seqr::bucket_size          256                      
system.ruby.ST.Directory.miss_type_mach_latency_hist_seqr::max_bucket         2559                      
system.ruby.ST.Directory.miss_type_mach_latency_hist_seqr::samples     17220005                      
system.ruby.ST.Directory.miss_type_mach_latency_hist_seqr::mean   158.126930                      
system.ruby.ST.Directory.miss_type_mach_latency_hist_seqr::gmean   148.104952                      
system.ruby.ST.Directory.miss_type_mach_latency_hist_seqr::stdev    77.455200                      
system.ruby.ST.Directory.miss_type_mach_latency_hist_seqr |    15960005     92.68%     92.68% |     1052687      6.11%     98.80% |      189850      1.10%     99.90% |       14416      0.08%     99.98% |        2690      0.02%    100.00% |         195      0.00%    100.00% |         156      0.00%    100.00% |           6      0.00%    100.00% |           0      0.00%    100.00% |           0      0.00%    100.00%
system.ruby.ST.Directory.miss_type_mach_latency_hist_seqr::total     17220005                      
system.ruby.IFETCH.L1Cache.miss_type_mach_latency_hist_seqr::bucket_size           32                      
system.ruby.IFETCH.L1Cache.miss_type_mach_latency_hist_seqr::max_bucket          319                      
system.ruby.IFETCH.L1Cache.miss_type_mach_latency_hist_seqr::samples       848367                      
system.ruby.IFETCH.L1Cache.miss_type_mach_latency_hist_seqr::mean    45.883510                      
system.ruby.IFETCH.L1Cache.miss_type_mach_latency_hist_seqr::gmean    45.853928                      
system.ruby.IFETCH.L1Cache.miss_type_mach_latency_hist_seqr::stdev     1.683257                      
system.ruby.IFETCH.L1Cache.miss_type_mach_latency_hist_seqr |           0      0.00%      0.00% |      848362    100.00%    100.00% |           3      0.00%    100.00% |           0      0.00%    100.00% |           1      0.00%    100.00% |           1      0.00%    100.00% |           0      0.00%    100.00% |           0      0.00%    100.00% |           0      0.00%    100.00% |           0      0.00%    100.00%
system.ruby.IFETCH.L1Cache.miss_type_mach_latency_hist_seqr::total       848367                      
system.ruby.IFETCH.Directory.miss_type_mach_latency_hist_seqr::bucket_size          256                      
system.ruby.IFETCH.Directory.miss_type_mach_latency_hist_seqr::max_bucket         2559                      
system.ruby.IFETCH.Directory.miss_type_mach_latency_hist_seqr::samples       472744                      
system.ruby.IFETCH.Directory.miss_type_mach_latency_hist_seqr::mean   138.054732                      
system.ruby.IFETCH.Directory.miss_type_mach_latency_hist_seqr::gmean   124.978233                      
system.ruby.IFETCH.Directory.miss_type_mach_latency_hist_seqr::stdev    86.440835                      
system.ruby.IFETCH.Directory.miss_type_mach_latency_hist_seqr |      442727     93.65%     93.65% |       23040      4.87%     98.52% |        6147      1.30%     99.82% |         692      0.15%     99.97% |         116      0.02%    100.00% |          20      0.00%    100.00% |           2      0.00%    100.00% |           0      0.00%    100.00% |           0      0.00%    100.00% |           0      0.00%    100.00%
system.ruby.IFETCH.Directory.miss_type_mach_latency_hist_seqr::total       472744                      
system.ruby.RMW_Read.L1Cache.miss_type_mach_latency_hist_seqr::bucket_size            8                      
system.ruby.RMW_Read.L1Cache.miss_type_mach_latency_hist_seqr::max_bucket           79                      
system.ruby.RMW_Read.L1Cache.miss_type_mach_latency_hist_seqr::samples         1844                      
system.ruby.RMW_Read.L1Cache.miss_type_mach_latency_hist_seqr::mean    45.253254                      
system.ruby.RMW_Read.L1Cache.miss_type_mach_latency_hist_seqr::gmean    45.242548                      
system.ruby.RMW_Read.L1Cache.miss_type_mach_latency_hist_seqr::stdev     1.021933                      
system.ruby.RMW_Read.L1Cache.miss_type_mach_latency_hist_seqr |           0      0.00%      0.00% |           0      0.00%      0.00% |           0      0.00%      0.00% |           0      0.00%      0.00% |           0      0.00%      0.00% |        1748     94.79%     94.79% |          94      5.10%     99.89% |           2      0.11%    100.00% |           0      0.00%    100.00% |           0      0.00%    100.00%
system.ruby.RMW_Read.L1Cache.miss_type_mach_latency_hist_seqr::total         1844                      
system.ruby.RMW_Read.Directory.miss_type_mach_latency_hist_seqr::bucket_size          128                      
system.ruby.RMW_Read.Directory.miss_type_mach_latency_hist_seqr::max_bucket         1279                      
system.ruby.RMW_Read.Directory.miss_type_mach_latency_hist_seqr::samples        59111                      
system.ruby.RMW_Read.Directory.miss_type_mach_latency_hist_seqr::mean   137.111367                      
system.ruby.RMW_Read.Directory.miss_type_mach_latency_hist_seqr::gmean   120.656336                      
system.ruby.RMW_Read.Directory.miss_type_mach_latency_hist_seqr::stdev    82.977732                      
system.ruby.RMW_Read.Directory.miss_type_mach_latency_hist_seqr |       37562     63.54%     63.54% |       17343     29.34%     92.88% |        2839      4.80%     97.69% |         723      1.22%     98.91% |         440      0.74%     99.65% |         160      0.27%     99.93% |          26      0.04%     99.97% |          10      0.02%     99.99% |           8      0.01%    100.00% |           0      0.00%    100.00%
system.ruby.RMW_Read.Directory.miss_type_mach_latency_hist_seqr::total        59111                      
system.ruby.Locked_RMW_Read.L1Cache.miss_type_mach_latency_hist_seqr::bucket_size            8                      
system.ruby.Locked_RMW_Read.L1Cache.miss_type_mach_latency_hist_seqr::max_bucket           79                      
system.ruby.Locked_RMW_Read.L1Cache.miss_type_mach_latency_hist_seqr::samples         4383                      
system.ruby.Locked_RMW_Read.L1Cache.miss_type_mach_latency_hist_seqr::mean    46.867442                      
system.ruby.Locked_RMW_Read.L1Cache.miss_type_mach_latency_hist_seqr::gmean    46.824757                      
system.ruby.Locked_RMW_Read.L1Cache.miss_type_mach_latency_hist_seqr::stdev     2.005355                      
system.ruby.Locked_RMW_Read.L1Cache.miss_type_mach_latency_hist_seqr |           0      0.00%      0.00% |           0      0.00%      0.00% |           0      0.00%      0.00% |           0      0.00%      0.00% |           0      0.00%      0.00% |        2359     53.82%     53.82% |        2024     46.18%    100.00% |           0      0.00%    100.00% |           0      0.00%    100.00% |           0      0.00%    100.00%
system.ruby.Locked_RMW_Read.L1Cache.miss_type_mach_latency_hist_seqr::total         4383                      
system.ruby.Locked_RMW_Read.Directory.miss_type_mach_latency_hist_seqr::bucket_size          256                      
system.ruby.Locked_RMW_Read.Directory.miss_type_mach_latency_hist_seqr::max_bucket         2559                      
system.ruby.Locked_RMW_Read.Directory.miss_type_mach_latency_hist_seqr::samples        30826                      
system.ruby.Locked_RMW_Read.Directory.miss_type_mach_latency_hist_seqr::mean   150.573282                      
system.ruby.Locked_RMW_Read.Directory.miss_type_mach_latency_hist_seqr::gmean   135.147812                      
system.ruby.Locked_RMW_Read.Directory.miss_type_mach_latency_hist_seqr::stdev   101.743943                      
system.ruby.Locked_RMW_Read.Directory.miss_type_mach_latency_hist_seqr |       28470     92.36%     92.36% |        1672      5.42%     97.78% |         555      1.80%     99.58% |          90      0.29%     99.87% |          27      0.09%     99.96% |          12      0.04%    100.00% |           0      0.00%    100.00% |           0      0.00%    100.00% |           0      0.00%    100.00% |           0      0.00%    100.00%
system.ruby.Locked_RMW_Read.Directory.miss_type_mach_latency_hist_seqr::total        30826                      
system.ruby.Directory_Controller.GETX        18619385      0.00%      0.00%
system.ruby.Directory_Controller.PUTX        18049066      0.00%      0.00%
system.ruby.Directory_Controller.DMA_READ            2      0.00%      0.00%
system.ruby.Directory_Controller.DMA_WRITE          128      0.00%      0.00%
system.ruby.Directory_Controller.Memory_Data     18049638      0.00%      0.00%
system.ruby.Directory_Controller.Memory_Ack     18049194      0.00%      0.00%
system.ruby.Directory_Controller.I.GETX      18049638      0.00%      0.00%
system.ruby.Directory_Controller.I.DMA_WRITE          128      0.00%      0.00%
system.ruby.Directory_Controller.M.GETX        569694      0.00%      0.00%
system.ruby.Directory_Controller.M.PUTX      18049064      0.00%      0.00%
system.ruby.Directory_Controller.M.DMA_READ            2      0.00%      0.00%
system.ruby.Directory_Controller.M_DRD.PUTX            2      0.00%      0.00%
system.ruby.Directory_Controller.M_DRDI.Memory_Ack            2      0.00%      0.00%
system.ruby.Directory_Controller.IM.GETX           53      0.00%      0.00%
system.ruby.Directory_Controller.IM.Memory_Data     18049638      0.00%      0.00%
system.ruby.Directory_Controller.MI.Memory_Ack     18049064      0.00%      0.00%
system.ruby.Directory_Controller.ID_W.Memory_Ack          128      0.00%      0.00%
system.ruby.DMA_Controller.ReadRequest   |           2    100.00%    100.00% |           0      0.00%    100.00%
system.ruby.DMA_Controller.ReadRequest::total            2                      
system.ruby.DMA_Controller.WriteRequest  |         128    100.00%    100.00% |           0      0.00%    100.00%
system.ruby.DMA_Controller.WriteRequest::total          128                      
system.ruby.DMA_Controller.Data          |           2    100.00%    100.00% |           0      0.00%    100.00%
system.ruby.DMA_Controller.Data::total              2                      
system.ruby.DMA_Controller.Ack           |         128    100.00%    100.00% |           0      0.00%    100.00%
system.ruby.DMA_Controller.Ack::total             128                      
system.ruby.DMA_Controller.READY.ReadRequest |           2    100.00%    100.00% |           0      0.00%    100.00%
system.ruby.DMA_Controller.READY.ReadRequest::total            2                      
system.ruby.DMA_Controller.READY.WriteRequest |         128    100.00%    100.00% |           0      0.00%    100.00%
system.ruby.DMA_Controller.READY.WriteRequest::total          128                      
system.ruby.DMA_Controller.BUSY_RD.Data  |           2    100.00%    100.00% |           0      0.00%    100.00%
system.ruby.DMA_Controller.BUSY_RD.Data::total            2                      
system.ruby.DMA_Controller.BUSY_WR.Ack   |         128    100.00%    100.00% |           0      0.00%    100.00%
system.ruby.DMA_Controller.BUSY_WR.Ack::total          128                      
system.ruby.L1Cache_Controller.Load      |     1121979      1.21%      1.21% |     3315503      3.58%      4.79% |      742684      0.80%      5.59% |    87432899     94.41%    100.00%
system.ruby.L1Cache_Controller.Load::total     92613065                      
system.ruby.L1Cache_Controller.Ifetch    |     5456799      0.50%      0.50% |    19702514      1.82%      2.33% |     3353634      0.31%      2.64% |  1052072411     97.36%    100.00%
system.ruby.L1Cache_Controller.Ifetch::total   1080585358                      
system.ruby.L1Cache_Controller.Store     |      899595      1.07%      1.07% |     2541357      3.02%      4.09% |      535136      0.64%      4.73% |    80136381     95.27%    100.00%
system.ruby.L1Cache_Controller.Store::total     84112469                      
system.ruby.L1Cache_Controller.Data      |      227140      1.22%      1.22% |      352132      1.89%      3.11% |      195895      1.05%      4.16% |    17844165     95.84%    100.00%
system.ruby.L1Cache_Controller.Data::total     18619332                      
system.ruby.L1Cache_Controller.Fwd_GETX  |      185045     32.48%     32.48% |      175156     30.75%     63.23% |      175317     30.77%     94.00% |       34176      6.00%    100.00%
system.ruby.L1Cache_Controller.Fwd_GETX::total       569694                      
system.ruby.L1Cache_Controller.Inv       |           0      0.00%      0.00% |           0      0.00%      0.00% |           0      0.00%      0.00% |           4    100.00%    100.00%
system.ruby.L1Cache_Controller.Inv::total            4                      
system.ruby.L1Cache_Controller.Replacement |       56411      0.31%      0.31% |      190621      1.05%      1.36% |       31704      0.18%      1.54% |    17825676     98.46%    100.00%
system.ruby.L1Cache_Controller.Replacement::total     18104412                      
system.ruby.L1Cache_Controller.Writeback_Ack |       41996      0.23%      0.23% |      176943      0.98%      1.21% |       20427      0.11%      1.33% |    17809700     98.67%    100.00%
system.ruby.L1Cache_Controller.Writeback_Ack::total     18049066                      
system.ruby.L1Cache_Controller.I.Load    |       50641      0.55%      0.55% |      142113      1.54%      2.09% |       42949      0.47%      2.56% |     8971212     97.44%    100.00%
system.ruby.L1Cache_Controller.I.Load::total      9206915                      
system.ruby.L1Cache_Controller.I.Ifetch  |      161027     22.38%     22.38% |      161072     22.38%     44.76% |      146000     20.29%     65.05% |      251521     34.95%    100.00%
system.ruby.L1Cache_Controller.I.Ifetch::total       719620                      
system.ruby.L1Cache_Controller.I.Store   |       15472      0.18%      0.18% |       48947      0.56%      0.74% |        6946      0.08%      0.82% |     8621432     99.18%    100.00%
system.ruby.L1Cache_Controller.I.Store::total      8692797                      
system.ruby.L1Cache_Controller.I.Replacement |       14415     26.04%     26.04% |       13678     24.71%     50.76% |       11277     20.37%     71.13% |       15978     28.87%    100.00%
system.ruby.L1Cache_Controller.I.Replacement::total        55348                      
system.ruby.L1Cache_Controller.M.Load    |     1071338      1.28%      1.28% |     3173390      3.80%      5.09% |      699735      0.84%      5.93% |    78461687     94.07%    100.00%
system.ruby.L1Cache_Controller.M.Load::total     83406150                      
system.ruby.L1Cache_Controller.M.Ifetch  |     5295772      0.49%      0.49% |    19541442      1.81%      2.30% |     3207634      0.30%      2.60% |  1051820890     97.40%    100.00%
system.ruby.L1Cache_Controller.M.Ifetch::total   1079865738                      
system.ruby.L1Cache_Controller.M.Store   |      884123      1.17%      1.17% |     2492410      3.30%      4.48% |      528190      0.70%      5.18% |    71514949     94.82%    100.00%
system.ruby.L1Cache_Controller.M.Store::total     75419672                      
system.ruby.L1Cache_Controller.M.Fwd_GETX |      185045     32.48%     32.48% |      175156     30.75%     63.23% |      175317     30.77%     94.00% |       34176      6.00%    100.00%
system.ruby.L1Cache_Controller.M.Fwd_GETX::total       569694                      
system.ruby.L1Cache_Controller.M.Inv     |           0      0.00%      0.00% |           0      0.00%      0.00% |           0      0.00%      0.00% |           2    100.00%    100.00%
system.ruby.L1Cache_Controller.M.Inv::total            2                      
system.ruby.L1Cache_Controller.M.Replacement |       41996      0.23%      0.23% |      176943      0.98%      1.21% |       20427      0.11%      1.33% |    17809698     98.67%    100.00%
system.ruby.L1Cache_Controller.M.Replacement::total     18049064                      
system.ruby.L1Cache_Controller.MI.Inv    |           0      0.00%      0.00% |           0      0.00%      0.00% |           0      0.00%      0.00% |           2    100.00%    100.00%
system.ruby.L1Cache_Controller.MI.Inv::total            2                      
system.ruby.L1Cache_Controller.MI.Writeback_Ack |       41996      0.23%      0.23% |      176943      0.98%      1.21% |       20427      0.11%      1.33% |    17809700     98.67%    100.00%
system.ruby.L1Cache_Controller.MI.Writeback_Ack::total     18049066                      
system.ruby.L1Cache_Controller.IS.Data   |      211668      2.13%      2.13% |      303185      3.05%      5.19% |      188949      1.90%      7.09% |     9222733     92.91%    100.00%
system.ruby.L1Cache_Controller.IS.Data::total      9926535                      
system.ruby.L1Cache_Controller.IM.Data   |       15472      0.18%      0.18% |       48947      0.56%      0.74% |        6946      0.08%      0.82% |     8621432     99.18%    100.00%
system.ruby.L1Cache_Controller.IM.Data::total      8692797                      

---------- End Simulation Statistics   ----------
