
---------- Begin Simulation Statistics ----------
sim_seconds                                  1.129090                       # Number of seconds simulated
sim_ticks                                1129089611500                       # Number of ticks simulated
final_tick                               53531344042501                       # Number of ticks from beginning of simulation (restored from checkpoints and never reset)
sim_freq                                 1000000000000                       # Frequency of simulated ticks
host_inst_rate                                 127707                       # Simulator instruction rate (inst/s)
host_op_rate                                   170818                       # Simulator op (including micro ops) rate (op/s)
host_tick_rate                              266398251                       # Simulator tick rate (ticks/s)
host_mem_usage                                1796272                       # Number of bytes of host memory used
host_seconds                                  4238.35                       # Real time elapsed on the host
sim_insts                                   541269150                       # Number of instructions simulated
sim_ops                                     723987726                       # Number of ops (including micro ops) simulated
system.voltage_domain.voltage                       1                       # Voltage in Volts
system.clk_domain.clock                          1000                       # Clock period in ticks
system.mem_ctrls.bytes_read::ruby.dir_cntrl0    168296768                       # Number of bytes read from this memory
system.mem_ctrls.bytes_read::total          168296768                       # Number of bytes read from this memory
system.mem_ctrls.bytes_written::ruby.dir_cntrl0     99257472                       # Number of bytes written to this memory
system.mem_ctrls.bytes_written::total        99257472                       # Number of bytes written to this memory
system.mem_ctrls.num_reads::ruby.dir_cntrl0      2629637                       # Number of read requests responded to by this memory
system.mem_ctrls.num_reads::total             2629637                       # Number of read requests responded to by this memory
system.mem_ctrls.num_writes::ruby.dir_cntrl0      1550898                       # Number of write requests responded to by this memory
system.mem_ctrls.num_writes::total            1550898                       # Number of write requests responded to by this memory
system.mem_ctrls.bw_read::ruby.dir_cntrl0    149055280                       # Total read bandwidth from this memory (bytes/s)
system.mem_ctrls.bw_read::total             149055280                       # Total read bandwidth from this memory (bytes/s)
system.mem_ctrls.bw_write::ruby.dir_cntrl0     87909295                       # Write bandwidth from this memory (bytes/s)
system.mem_ctrls.bw_write::total             87909295                       # Write bandwidth from this memory (bytes/s)
system.mem_ctrls.bw_total::ruby.dir_cntrl0    236964575                       # Total bandwidth to/from this memory (bytes/s)
system.mem_ctrls.bw_total::total            236964575                       # Total bandwidth to/from this memory (bytes/s)
system.mem_ctrls.readReqs                     2629637                       # Number of read requests accepted
system.mem_ctrls.writeReqs                    1550898                       # Number of write requests accepted
system.mem_ctrls.readBursts                   2629637                       # Number of DRAM read bursts, including those serviced by the write queue
system.mem_ctrls.writeBursts                  1550898                       # Number of DRAM write bursts, including those merged in the write queue
system.mem_ctrls.bytesReadDRAM              168269696                       # Total number of bytes read from DRAM
system.mem_ctrls.bytesReadWrQ                   27072                       # Total number of bytes read from write queue
system.mem_ctrls.bytesWritten                99257984                       # Total number of bytes written to DRAM
system.mem_ctrls.bytesReadSys               168296768                       # Total read bytes from the system interface side
system.mem_ctrls.bytesWrittenSys             99257472                       # Total written bytes from the system interface side
system.mem_ctrls.servicedByWrQ                    423                       # Number of DRAM read bursts serviced by the write queue
system.mem_ctrls.mergedWrBursts                     0                       # Number of DRAM write bursts merged with an existing one
system.mem_ctrls.neitherReadNorWriteReqs            0                       # Number of requests that are neither read nor write
system.mem_ctrls.perBankRdBursts::0            164474                       # Per bank write bursts
system.mem_ctrls.perBankRdBursts::1            166095                       # Per bank write bursts
system.mem_ctrls.perBankRdBursts::2            163915                       # Per bank write bursts
system.mem_ctrls.perBankRdBursts::3            163653                       # Per bank write bursts
system.mem_ctrls.perBankRdBursts::4            164640                       # Per bank write bursts
system.mem_ctrls.perBankRdBursts::5            164085                       # Per bank write bursts
system.mem_ctrls.perBankRdBursts::6            163444                       # Per bank write bursts
system.mem_ctrls.perBankRdBursts::7            163719                       # Per bank write bursts
system.mem_ctrls.perBankRdBursts::8            164828                       # Per bank write bursts
system.mem_ctrls.perBankRdBursts::9            163584                       # Per bank write bursts
system.mem_ctrls.perBankRdBursts::10           164310                       # Per bank write bursts
system.mem_ctrls.perBankRdBursts::11           163527                       # Per bank write bursts
system.mem_ctrls.perBankRdBursts::12           164151                       # Per bank write bursts
system.mem_ctrls.perBankRdBursts::13           164240                       # Per bank write bursts
system.mem_ctrls.perBankRdBursts::14           165156                       # Per bank write bursts
system.mem_ctrls.perBankRdBursts::15           165393                       # Per bank write bursts
system.mem_ctrls.perBankWrBursts::0             97099                       # Per bank write bursts
system.mem_ctrls.perBankWrBursts::1             98489                       # Per bank write bursts
system.mem_ctrls.perBankWrBursts::2             96990                       # Per bank write bursts
system.mem_ctrls.perBankWrBursts::3             96383                       # Per bank write bursts
system.mem_ctrls.perBankWrBursts::4             97277                       # Per bank write bursts
system.mem_ctrls.perBankWrBursts::5             96629                       # Per bank write bursts
system.mem_ctrls.perBankWrBursts::6             96271                       # Per bank write bursts
system.mem_ctrls.perBankWrBursts::7             96792                       # Per bank write bursts
system.mem_ctrls.perBankWrBursts::8             97625                       # Per bank write bursts
system.mem_ctrls.perBankWrBursts::9             96388                       # Per bank write bursts
system.mem_ctrls.perBankWrBursts::10            96987                       # Per bank write bursts
system.mem_ctrls.perBankWrBursts::11            96772                       # Per bank write bursts
system.mem_ctrls.perBankWrBursts::12            96617                       # Per bank write bursts
system.mem_ctrls.perBankWrBursts::13            96405                       # Per bank write bursts
system.mem_ctrls.perBankWrBursts::14            96890                       # Per bank write bursts
system.mem_ctrls.perBankWrBursts::15            97292                       # Per bank write bursts
system.mem_ctrls.numRdRetry                         0                       # Number of times read queue was full causing retry
system.mem_ctrls.numWrRetry                         0                       # Number of times write queue was full causing retry
system.mem_ctrls.totGap                  1129089608000                       # Total gap between requests
system.mem_ctrls.readPktSize::0                     0                       # Read request sizes (log2)
system.mem_ctrls.readPktSize::1                     0                       # Read request sizes (log2)
system.mem_ctrls.readPktSize::2                     0                       # Read request sizes (log2)
system.mem_ctrls.readPktSize::3                     0                       # Read request sizes (log2)
system.mem_ctrls.readPktSize::4                     0                       # Read request sizes (log2)
system.mem_ctrls.readPktSize::5                     0                       # Read request sizes (log2)
system.mem_ctrls.readPktSize::6               2629637                       # Read request sizes (log2)
system.mem_ctrls.writePktSize::0                    0                       # Write request sizes (log2)
system.mem_ctrls.writePktSize::1                    0                       # Write request sizes (log2)
system.mem_ctrls.writePktSize::2                    0                       # Write request sizes (log2)
system.mem_ctrls.writePktSize::3                    0                       # Write request sizes (log2)
system.mem_ctrls.writePktSize::4                    0                       # Write request sizes (log2)
system.mem_ctrls.writePktSize::5                    0                       # Write request sizes (log2)
system.mem_ctrls.writePktSize::6              1550898                       # Write request sizes (log2)
system.mem_ctrls.rdQLenPdf::0                 2628710                       # What read queue length does an incoming req see
system.mem_ctrls.rdQLenPdf::1                     504                       # What read queue length does an incoming req see
system.mem_ctrls.rdQLenPdf::2                       0                       # What read queue length does an incoming req see
system.mem_ctrls.rdQLenPdf::3                       0                       # What read queue length does an incoming req see
system.mem_ctrls.rdQLenPdf::4                       0                       # What read queue length does an incoming req see
system.mem_ctrls.rdQLenPdf::5                       0                       # What read queue length does an incoming req see
system.mem_ctrls.rdQLenPdf::6                       0                       # What read queue length does an incoming req see
system.mem_ctrls.rdQLenPdf::7                       0                       # What read queue length does an incoming req see
system.mem_ctrls.rdQLenPdf::8                       0                       # What read queue length does an incoming req see
system.mem_ctrls.rdQLenPdf::9                       0                       # What read queue length does an incoming req see
system.mem_ctrls.rdQLenPdf::10                      0                       # What read queue length does an incoming req see
system.mem_ctrls.rdQLenPdf::11                      0                       # What read queue length does an incoming req see
system.mem_ctrls.rdQLenPdf::12                      0                       # What read queue length does an incoming req see
system.mem_ctrls.rdQLenPdf::13                      0                       # What read queue length does an incoming req see
system.mem_ctrls.rdQLenPdf::14                      0                       # What read queue length does an incoming req see
system.mem_ctrls.rdQLenPdf::15                      0                       # What read queue length does an incoming req see
system.mem_ctrls.rdQLenPdf::16                      0                       # What read queue length does an incoming req see
system.mem_ctrls.rdQLenPdf::17                      0                       # What read queue length does an incoming req see
system.mem_ctrls.rdQLenPdf::18                      0                       # What read queue length does an incoming req see
system.mem_ctrls.rdQLenPdf::19                      0                       # What read queue length does an incoming req see
system.mem_ctrls.rdQLenPdf::20                      0                       # What read queue length does an incoming req see
system.mem_ctrls.rdQLenPdf::21                      0                       # What read queue length does an incoming req see
system.mem_ctrls.rdQLenPdf::22                      0                       # What read queue length does an incoming req see
system.mem_ctrls.rdQLenPdf::23                      0                       # What read queue length does an incoming req see
system.mem_ctrls.rdQLenPdf::24                      0                       # What read queue length does an incoming req see
system.mem_ctrls.rdQLenPdf::25                      0                       # What read queue length does an incoming req see
system.mem_ctrls.rdQLenPdf::26                      0                       # What read queue length does an incoming req see
system.mem_ctrls.rdQLenPdf::27                      0                       # What read queue length does an incoming req see
system.mem_ctrls.rdQLenPdf::28                      0                       # What read queue length does an incoming req see
system.mem_ctrls.rdQLenPdf::29                      0                       # What read queue length does an incoming req see
system.mem_ctrls.rdQLenPdf::30                      0                       # What read queue length does an incoming req see
system.mem_ctrls.rdQLenPdf::31                      0                       # What read queue length does an incoming req see
system.mem_ctrls.wrQLenPdf::0                       0                       # What write queue length does an incoming req see
system.mem_ctrls.wrQLenPdf::1                       0                       # What write queue length does an incoming req see
system.mem_ctrls.wrQLenPdf::2                       0                       # What write queue length does an incoming req see
system.mem_ctrls.wrQLenPdf::3                       0                       # What write queue length does an incoming req see
system.mem_ctrls.wrQLenPdf::4                       0                       # What write queue length does an incoming req see
system.mem_ctrls.wrQLenPdf::5                       0                       # What write queue length does an incoming req see
system.mem_ctrls.wrQLenPdf::6                       0                       # What write queue length does an incoming req see
system.mem_ctrls.wrQLenPdf::7                       0                       # What write queue length does an incoming req see
system.mem_ctrls.wrQLenPdf::8                       0                       # What write queue length does an incoming req see
system.mem_ctrls.wrQLenPdf::9                       0                       # What write queue length does an incoming req see
system.mem_ctrls.wrQLenPdf::10                      0                       # What write queue length does an incoming req see
system.mem_ctrls.wrQLenPdf::11                      0                       # What write queue length does an incoming req see
system.mem_ctrls.wrQLenPdf::12                      0                       # What write queue length does an incoming req see
system.mem_ctrls.wrQLenPdf::13                      0                       # What write queue length does an incoming req see
system.mem_ctrls.wrQLenPdf::14                      0                       # What write queue length does an incoming req see
system.mem_ctrls.wrQLenPdf::15                  31443                       # What write queue length does an incoming req see
system.mem_ctrls.wrQLenPdf::16                  33946                       # What write queue length does an incoming req see
system.mem_ctrls.wrQLenPdf::17                  70234                       # What write queue length does an incoming req see
system.mem_ctrls.wrQLenPdf::18                  89218                       # What write queue length does an incoming req see
system.mem_ctrls.wrQLenPdf::19                  93841                       # What write queue length does an incoming req see
system.mem_ctrls.wrQLenPdf::20                  94680                       # What write queue length does an incoming req see
system.mem_ctrls.wrQLenPdf::21                  94740                       # What write queue length does an incoming req see
system.mem_ctrls.wrQLenPdf::22                  94832                       # What write queue length does an incoming req see
system.mem_ctrls.wrQLenPdf::23                  95194                       # What write queue length does an incoming req see
system.mem_ctrls.wrQLenPdf::24                  95379                       # What write queue length does an incoming req see
system.mem_ctrls.wrQLenPdf::25                  95544                       # What write queue length does an incoming req see
system.mem_ctrls.wrQLenPdf::26                  96114                       # What write queue length does an incoming req see
system.mem_ctrls.wrQLenPdf::27                  96030                       # What write queue length does an incoming req see
system.mem_ctrls.wrQLenPdf::28                  95663                       # What write queue length does an incoming req see
system.mem_ctrls.wrQLenPdf::29                  94765                       # What write queue length does an incoming req see
system.mem_ctrls.wrQLenPdf::30                  93350                       # What write queue length does an incoming req see
system.mem_ctrls.wrQLenPdf::31                  92530                       # What write queue length does an incoming req see
system.mem_ctrls.wrQLenPdf::32                  92822                       # What write queue length does an incoming req see
system.mem_ctrls.wrQLenPdf::33                    388                       # What write queue length does an incoming req see
system.mem_ctrls.wrQLenPdf::34                    109                       # What write queue length does an incoming req see
system.mem_ctrls.wrQLenPdf::35                     31                       # What write queue length does an incoming req see
system.mem_ctrls.wrQLenPdf::36                     16                       # What write queue length does an incoming req see
system.mem_ctrls.wrQLenPdf::37                      9                       # What write queue length does an incoming req see
system.mem_ctrls.wrQLenPdf::38                      6                       # What write queue length does an incoming req see
system.mem_ctrls.wrQLenPdf::39                      5                       # What write queue length does an incoming req see
system.mem_ctrls.wrQLenPdf::40                      4                       # What write queue length does an incoming req see
system.mem_ctrls.wrQLenPdf::41                      2                       # What write queue length does an incoming req see
system.mem_ctrls.wrQLenPdf::42                      2                       # What write queue length does an incoming req see
system.mem_ctrls.wrQLenPdf::43                      1                       # What write queue length does an incoming req see
system.mem_ctrls.wrQLenPdf::44                      0                       # What write queue length does an incoming req see
system.mem_ctrls.wrQLenPdf::45                      0                       # What write queue length does an incoming req see
system.mem_ctrls.wrQLenPdf::46                      0                       # What write queue length does an incoming req see
system.mem_ctrls.wrQLenPdf::47                      0                       # What write queue length does an incoming req see
system.mem_ctrls.wrQLenPdf::48                      0                       # What write queue length does an incoming req see
system.mem_ctrls.wrQLenPdf::49                      0                       # What write queue length does an incoming req see
system.mem_ctrls.wrQLenPdf::50                      0                       # What write queue length does an incoming req see
system.mem_ctrls.wrQLenPdf::51                      0                       # What write queue length does an incoming req see
system.mem_ctrls.wrQLenPdf::52                      0                       # What write queue length does an incoming req see
system.mem_ctrls.wrQLenPdf::53                      0                       # What write queue length does an incoming req see
system.mem_ctrls.wrQLenPdf::54                      0                       # What write queue length does an incoming req see
system.mem_ctrls.wrQLenPdf::55                      0                       # What write queue length does an incoming req see
system.mem_ctrls.wrQLenPdf::56                      0                       # What write queue length does an incoming req see
system.mem_ctrls.wrQLenPdf::57                      0                       # What write queue length does an incoming req see
system.mem_ctrls.wrQLenPdf::58                      0                       # What write queue length does an incoming req see
system.mem_ctrls.wrQLenPdf::59                      0                       # What write queue length does an incoming req see
system.mem_ctrls.wrQLenPdf::60                      0                       # What write queue length does an incoming req see
system.mem_ctrls.wrQLenPdf::61                      0                       # What write queue length does an incoming req see
system.mem_ctrls.wrQLenPdf::62                      0                       # What write queue length does an incoming req see
system.mem_ctrls.wrQLenPdf::63                      0                       # What write queue length does an incoming req see
system.mem_ctrls.bytesPerActivate::samples      2058276                       # Bytes accessed per row activation
system.mem_ctrls.bytesPerActivate::mean    129.976427                       # Bytes accessed per row activation
system.mem_ctrls.bytesPerActivate::gmean    89.009965                       # Bytes accessed per row activation
system.mem_ctrls.bytesPerActivate::stdev   190.159300                       # Bytes accessed per row activation
system.mem_ctrls.bytesPerActivate::0-127      1513042     73.51%     73.51% # Bytes accessed per row activation
system.mem_ctrls.bytesPerActivate::128-255       356647     17.33%     90.84% # Bytes accessed per row activation
system.mem_ctrls.bytesPerActivate::256-383        48664      2.36%     93.20% # Bytes accessed per row activation
system.mem_ctrls.bytesPerActivate::384-511        25056      1.22%     94.42% # Bytes accessed per row activation
system.mem_ctrls.bytesPerActivate::512-639        21673      1.05%     95.47% # Bytes accessed per row activation
system.mem_ctrls.bytesPerActivate::640-767        14535      0.71%     96.18% # Bytes accessed per row activation
system.mem_ctrls.bytesPerActivate::768-895        13383      0.65%     96.83% # Bytes accessed per row activation
system.mem_ctrls.bytesPerActivate::896-1023         9269      0.45%     97.28% # Bytes accessed per row activation
system.mem_ctrls.bytesPerActivate::1024-1151        56007      2.72%    100.00% # Bytes accessed per row activation
system.mem_ctrls.bytesPerActivate::total      2058276                       # Bytes accessed per row activation
system.mem_ctrls.rdPerTurnAround::samples        92333                       # Reads before turning the bus around for writes
system.mem_ctrls.rdPerTurnAround::mean      28.506471                       # Reads before turning the bus around for writes
system.mem_ctrls.rdPerTurnAround::stdev     31.520397                       # Reads before turning the bus around for writes
system.mem_ctrls.rdPerTurnAround::0-127         90963     98.52%     98.52% # Reads before turning the bus around for writes
system.mem_ctrls.rdPerTurnAround::128-255         1191      1.29%     99.81% # Reads before turning the bus around for writes
system.mem_ctrls.rdPerTurnAround::256-383          158      0.17%     99.98% # Reads before turning the bus around for writes
system.mem_ctrls.rdPerTurnAround::384-511            8      0.01%     99.99% # Reads before turning the bus around for writes
system.mem_ctrls.rdPerTurnAround::512-639            6      0.01%     99.99% # Reads before turning the bus around for writes
system.mem_ctrls.rdPerTurnAround::640-767            1      0.00%     99.99% # Reads before turning the bus around for writes
system.mem_ctrls.rdPerTurnAround::768-895            1      0.00%     99.99% # Reads before turning the bus around for writes
system.mem_ctrls.rdPerTurnAround::896-1023            1      0.00%    100.00% # Reads before turning the bus around for writes
system.mem_ctrls.rdPerTurnAround::1664-1791            2      0.00%    100.00% # Reads before turning the bus around for writes
system.mem_ctrls.rdPerTurnAround::2432-2559            1      0.00%    100.00% # Reads before turning the bus around for writes
system.mem_ctrls.rdPerTurnAround::2816-2943            1      0.00%    100.00% # Reads before turning the bus around for writes
system.mem_ctrls.rdPerTurnAround::total         92333                       # Reads before turning the bus around for writes
system.mem_ctrls.wrPerTurnAround::samples        92333                       # Writes before turning the bus around for reads
system.mem_ctrls.wrPerTurnAround::mean      16.796877                       # Writes before turning the bus around for reads
system.mem_ctrls.wrPerTurnAround::gmean     16.759264                       # Writes before turning the bus around for reads
system.mem_ctrls.wrPerTurnAround::stdev      1.164638                       # Writes before turning the bus around for reads
system.mem_ctrls.wrPerTurnAround::16            58476     63.33%     63.33% # Writes before turning the bus around for reads
system.mem_ctrls.wrPerTurnAround::17             1492      1.62%     64.95% # Writes before turning the bus around for reads
system.mem_ctrls.wrPerTurnAround::18            28329     30.68%     95.63% # Writes before turning the bus around for reads
system.mem_ctrls.wrPerTurnAround::19             2539      2.75%     98.38% # Writes before turning the bus around for reads
system.mem_ctrls.wrPerTurnAround::20              746      0.81%     99.19% # Writes before turning the bus around for reads
system.mem_ctrls.wrPerTurnAround::21              333      0.36%     99.55% # Writes before turning the bus around for reads
system.mem_ctrls.wrPerTurnAround::22              144      0.16%     99.70% # Writes before turning the bus around for reads
system.mem_ctrls.wrPerTurnAround::23              121      0.13%     99.83% # Writes before turning the bus around for reads
system.mem_ctrls.wrPerTurnAround::24               76      0.08%     99.92% # Writes before turning the bus around for reads
system.mem_ctrls.wrPerTurnAround::25               30      0.03%     99.95% # Writes before turning the bus around for reads
system.mem_ctrls.wrPerTurnAround::26               18      0.02%     99.97% # Writes before turning the bus around for reads
system.mem_ctrls.wrPerTurnAround::27               10      0.01%     99.98% # Writes before turning the bus around for reads
system.mem_ctrls.wrPerTurnAround::28                4      0.00%     99.98% # Writes before turning the bus around for reads
system.mem_ctrls.wrPerTurnAround::29                6      0.01%     99.99% # Writes before turning the bus around for reads
system.mem_ctrls.wrPerTurnAround::30                3      0.00%     99.99% # Writes before turning the bus around for reads
system.mem_ctrls.wrPerTurnAround::31                1      0.00%     99.99% # Writes before turning the bus around for reads
system.mem_ctrls.wrPerTurnAround::32                1      0.00%    100.00% # Writes before turning the bus around for reads
system.mem_ctrls.wrPerTurnAround::33                1      0.00%    100.00% # Writes before turning the bus around for reads
system.mem_ctrls.wrPerTurnAround::34                1      0.00%    100.00% # Writes before turning the bus around for reads
system.mem_ctrls.wrPerTurnAround::35                1      0.00%    100.00% # Writes before turning the bus around for reads
system.mem_ctrls.wrPerTurnAround::46                1      0.00%    100.00% # Writes before turning the bus around for reads
system.mem_ctrls.wrPerTurnAround::total         92333                       # Writes before turning the bus around for reads
system.mem_ctrls.totQLat                  50599163748                       # Total ticks spent queuing
system.mem_ctrls.totMemAccLat             99896926248                       # Total ticks spent from burst creation until serviced by the DRAM
system.mem_ctrls.totBusLat                13146070000                       # Total ticks spent in databus transfers
system.mem_ctrls.avgQLat                     19244.98                       # Average queueing delay per DRAM burst
system.mem_ctrls.avgBusLat                    5000.00                       # Average bus latency per DRAM burst
system.mem_ctrls.avgMemAccLat                37994.98                       # Average memory access latency per DRAM burst
system.mem_ctrls.avgRdBW                       149.03                       # Average DRAM read bandwidth in MiByte/s
system.mem_ctrls.avgWrBW                        87.91                       # Average achieved write bandwidth in MiByte/s
system.mem_ctrls.avgRdBWSys                    149.06                       # Average system read bandwidth in MiByte/s
system.mem_ctrls.avgWrBWSys                     87.91                       # Average system write bandwidth in MiByte/s
system.mem_ctrls.peakBW                      12800.00                       # Theoretical peak bandwidth in MiByte/s
system.mem_ctrls.busUtil                         1.85                       # Data bus utilization in percentage
system.mem_ctrls.busUtilRead                     1.16                       # Data bus utilization in percentage for reads
system.mem_ctrls.busUtilWrite                    0.69                       # Data bus utilization in percentage for writes
system.mem_ctrls.avgRdQLen                       1.00                       # Average read queue length when enqueuing
system.mem_ctrls.avgWrQLen                      24.83                       # Average write queue length when enqueuing
system.mem_ctrls.readRowHits                  1352561                       # Number of row buffer hits during reads
system.mem_ctrls.writeRowHits                  769276                       # Number of row buffer hits during writes
system.mem_ctrls.readRowHitRate                 51.44                       # Row buffer hit rate for reads
system.mem_ctrls.writeRowHitRate                49.60                       # Row buffer hit rate for writes
system.mem_ctrls.avgGap                     270082.56                       # Average gap between requests
system.mem_ctrls.pageHitRate                    50.76                       # Row buffer hit rate, read and write combined
system.mem_ctrls_0.actEnergy               7820948520                       # Energy for activate commands per rank (pJ)
system.mem_ctrls_0.preEnergy               4267382625                       # Energy for precharge commands per rank (pJ)
system.mem_ctrls_0.readEnergy             10352542200                       # Energy for read commands per rank (pJ)
system.mem_ctrls_0.writeEnergy             5028078240                       # Energy for write commands per rank (pJ)
system.mem_ctrls_0.refreshEnergy          74170933200                       # Energy for refresh commands per rank (pJ)
system.mem_ctrls_0.actBackEnergy         243162813105                       # Energy for active background per rank (pJ)
system.mem_ctrls_0.preBackEnergy         468050821500                       # Energy for precharge background per rank (pJ)
system.mem_ctrls_0.totalEnergy           812853519390                       # Total energy per rank (pJ)
system.mem_ctrls_0.averagePower            715.801003                       # Core power per rank (mW)
system.mem_ctrls_0.memoryStateTime::IDLE 770988280500                       # Time in different power states
system.mem_ctrls_0.memoryStateTime::REF   37702860000                       # Time in different power states
system.mem_ctrls_0.memoryStateTime::PRE_PDN            0                       # Time in different power states
system.mem_ctrls_0.memoryStateTime::ACT  320401407500                       # Time in different power states
system.mem_ctrls_0.memoryStateTime::ACT_PDN            0                       # Time in different power states
system.mem_ctrls_1.actEnergy               7778680560                       # Energy for activate commands per rank (pJ)
system.mem_ctrls_1.preEnergy               4244319750                       # Energy for precharge commands per rank (pJ)
system.mem_ctrls_1.readEnergy             10354258200                       # Energy for read commands per rank (pJ)
system.mem_ctrls_1.writeEnergy             5021883360                       # Energy for write commands per rank (pJ)
system.mem_ctrls_1.refreshEnergy          74170933200                       # Energy for refresh commands per rank (pJ)
system.mem_ctrls_1.actBackEnergy         244252935540                       # Energy for active background per rank (pJ)
system.mem_ctrls_1.preBackEnergy         467094573750                       # Energy for precharge background per rank (pJ)
system.mem_ctrls_1.totalEnergy           812917584360                       # Total energy per rank (pJ)
system.mem_ctrls_1.averagePower            715.857418                       # Core power per rank (mW)
system.mem_ctrls_1.memoryStateTime::IDLE 769836775250                       # Time in different power states
system.mem_ctrls_1.memoryStateTime::REF   37702860000                       # Time in different power states
system.mem_ctrls_1.memoryStateTime::PRE_PDN            0                       # Time in different power states
system.mem_ctrls_1.memoryStateTime::ACT  321552890000                       # Time in different power states
system.mem_ctrls_1.memoryStateTime::ACT_PDN            0                       # Time in different power states
system.cpu_voltage_domain.voltage                   1                       # Voltage in Volts
system.cpu_clk_domain.clock                       500                       # Clock period in ticks
system.cpu0.apic_clk_domain.clock                8000                       # Clock period in ticks
system.cpu0.numCycles                      2255948755                       # number of cpu cycles simulated
system.cpu0.numWorkItemsStarted                     0                       # number of work items this cpu started
system.cpu0.numWorkItemsCompleted                   0                       # number of work items this cpu completed
system.cpu0.kern.inst.arm                           0                       # number of arm instructions executed
system.cpu0.kern.inst.quiesce                       0                       # number of quiesce instructions executed
system.cpu0.committedInsts                    2976416                       # Number of instructions committed
system.cpu0.committedOps                      5935270                       # Number of ops (including micro ops) committed
system.cpu0.num_int_alu_accesses              5831598                       # Number of integer alu accesses
system.cpu0.num_fp_alu_accesses                  1826                       # Number of float alu accesses
system.cpu0.num_func_calls                     155696                       # number of times a function call or return occured
system.cpu0.num_conditional_control_insts       493960                       # number of instructions that are conditional controls
system.cpu0.num_int_insts                     5831598                       # number of integer instructions
system.cpu0.num_fp_insts                         1826                       # number of float instructions
system.cpu0.num_int_register_reads           11613336                       # number of times the integer registers were read
system.cpu0.num_int_register_writes           4737258                       # number of times the integer registers were written
system.cpu0.num_fp_register_reads                3068                       # number of times the floating registers were read
system.cpu0.num_fp_register_writes               1448                       # number of times the floating registers were written
system.cpu0.num_cc_register_reads             3715230                       # number of times the CC registers were read
system.cpu0.num_cc_register_writes            2035462                       # number of times the CC registers were written
system.cpu0.num_mem_refs                      1336867                       # number of memory refs
system.cpu0.num_load_insts                     863701                       # Number of load instructions
system.cpu0.num_store_insts                    473166                       # Number of store instructions
system.cpu0.num_idle_cycles              2243879715.722486                       # Number of idle cycles
system.cpu0.num_busy_cycles              12069039.277514                       # Number of busy cycles
system.cpu0.not_idle_fraction                0.005350                       # Percentage of non-idle cycles
system.cpu0.idle_fraction                    0.994650                       # Percentage of idle cycles
system.cpu0.Branches                           677676                       # Number of branches fetched
system.cpu0.op_class::No_OpClass                37702      0.64%      0.64% # Class of executed instruction
system.cpu0.op_class::IntAlu                  4543495     76.55%     77.18% # Class of executed instruction
system.cpu0.op_class::IntMult                    4698      0.08%     77.26% # Class of executed instruction
system.cpu0.op_class::IntDiv                    11223      0.19%     77.45% # Class of executed instruction
system.cpu0.op_class::FloatAdd                   1376      0.02%     77.48% # Class of executed instruction
system.cpu0.op_class::FloatCmp                      0      0.00%     77.48% # Class of executed instruction
system.cpu0.op_class::FloatCvt                      0      0.00%     77.48% # Class of executed instruction
system.cpu0.op_class::FloatMult                     0      0.00%     77.48% # Class of executed instruction
system.cpu0.op_class::FloatDiv                      0      0.00%     77.48% # Class of executed instruction
system.cpu0.op_class::FloatSqrt                     0      0.00%     77.48% # Class of executed instruction
system.cpu0.op_class::SimdAdd                       0      0.00%     77.48% # Class of executed instruction
system.cpu0.op_class::SimdAddAcc                    0      0.00%     77.48% # Class of executed instruction
system.cpu0.op_class::SimdAlu                       0      0.00%     77.48% # Class of executed instruction
system.cpu0.op_class::SimdCmp                       0      0.00%     77.48% # Class of executed instruction
system.cpu0.op_class::SimdCvt                       0      0.00%     77.48% # Class of executed instruction
system.cpu0.op_class::SimdMisc                      0      0.00%     77.48% # Class of executed instruction
system.cpu0.op_class::SimdMult                      0      0.00%     77.48% # Class of executed instruction
system.cpu0.op_class::SimdMultAcc                   0      0.00%     77.48% # Class of executed instruction
system.cpu0.op_class::SimdShift                     0      0.00%     77.48% # Class of executed instruction
system.cpu0.op_class::SimdShiftAcc                  0      0.00%     77.48% # Class of executed instruction
system.cpu0.op_class::SimdSqrt                      0      0.00%     77.48% # Class of executed instruction
system.cpu0.op_class::SimdFloatAdd                  0      0.00%     77.48% # Class of executed instruction
system.cpu0.op_class::SimdFloatAlu                  0      0.00%     77.48% # Class of executed instruction
system.cpu0.op_class::SimdFloatCmp                  0      0.00%     77.48% # Class of executed instruction
system.cpu0.op_class::SimdFloatCvt                  0      0.00%     77.48% # Class of executed instruction
system.cpu0.op_class::SimdFloatDiv                  0      0.00%     77.48% # Class of executed instruction
system.cpu0.op_class::SimdFloatMisc                 0      0.00%     77.48% # Class of executed instruction
system.cpu0.op_class::SimdFloatMult                 0      0.00%     77.48% # Class of executed instruction
system.cpu0.op_class::SimdFloatMultAcc              0      0.00%     77.48% # Class of executed instruction
system.cpu0.op_class::SimdFloatSqrt                 0      0.00%     77.48% # Class of executed instruction
system.cpu0.op_class::MemRead                  863701     14.55%     92.03% # Class of executed instruction
system.cpu0.op_class::MemWrite                 473166      7.97%    100.00% # Class of executed instruction
system.cpu0.op_class::IprAccess                     0      0.00%    100.00% # Class of executed instruction
system.cpu0.op_class::InstPrefetch                  0      0.00%    100.00% # Class of executed instruction
system.cpu0.op_class::total                   5935361                       # Class of executed instruction
system.cpu1.apic_clk_domain.clock                8000                       # Clock period in ticks
system.cpu1.numCycles                      2260229713                       # number of cpu cycles simulated
system.cpu1.numWorkItemsStarted                     0                       # number of work items this cpu started
system.cpu1.numWorkItemsCompleted                   0                       # number of work items this cpu completed
system.cpu1.kern.inst.arm                           0                       # number of arm instructions executed
system.cpu1.kern.inst.quiesce                       0                       # number of quiesce instructions executed
system.cpu1.committedInsts                     831632                       # Number of instructions committed
system.cpu1.committedOps                      1772673                       # Number of ops (including micro ops) committed
system.cpu1.num_int_alu_accesses              1732372                       # Number of integer alu accesses
system.cpu1.num_fp_alu_accesses                    39                       # Number of float alu accesses
system.cpu1.num_func_calls                      48916                       # number of times a function call or return occured
system.cpu1.num_conditional_control_insts       124323                       # number of instructions that are conditional controls
system.cpu1.num_int_insts                     1732372                       # number of integer instructions
system.cpu1.num_fp_insts                           39                       # number of float instructions
system.cpu1.num_int_register_reads            3523066                       # number of times the integer registers were read
system.cpu1.num_int_register_writes           1430084                       # number of times the integer registers were written
system.cpu1.num_fp_register_reads                  63                       # number of times the floating registers were read
system.cpu1.num_fp_register_writes                 31                       # number of times the floating registers were written
system.cpu1.num_cc_register_reads              966927                       # number of times the CC registers were read
system.cpu1.num_cc_register_writes             521010                       # number of times the CC registers were written
system.cpu1.num_mem_refs                       426363                       # number of memory refs
system.cpu1.num_load_insts                     266499                       # Number of load instructions
system.cpu1.num_store_insts                    159864                       # Number of store instructions
system.cpu1.num_idle_cycles              2256585290.764665                       # Number of idle cycles
system.cpu1.num_busy_cycles              3644422.235335                       # Number of busy cycles
system.cpu1.not_idle_fraction                0.001612                       # Percentage of non-idle cycles
system.cpu1.idle_fraction                    0.998388                       # Percentage of idle cycles
system.cpu1.Branches                           189031                       # Number of branches fetched
system.cpu1.op_class::No_OpClass                28573      1.61%      1.61% # Class of executed instruction
system.cpu1.op_class::IntAlu                  1303877     73.55%     75.17% # Class of executed instruction
system.cpu1.op_class::IntMult                    4256      0.24%     75.41% # Class of executed instruction
system.cpu1.op_class::IntDiv                     9596      0.54%     75.95% # Class of executed instruction
system.cpu1.op_class::FloatAdd                     30      0.00%     75.95% # Class of executed instruction
system.cpu1.op_class::FloatCmp                      0      0.00%     75.95% # Class of executed instruction
system.cpu1.op_class::FloatCvt                      0      0.00%     75.95% # Class of executed instruction
system.cpu1.op_class::FloatMult                     0      0.00%     75.95% # Class of executed instruction
system.cpu1.op_class::FloatDiv                      0      0.00%     75.95% # Class of executed instruction
system.cpu1.op_class::FloatSqrt                     0      0.00%     75.95% # Class of executed instruction
system.cpu1.op_class::SimdAdd                       0      0.00%     75.95% # Class of executed instruction
system.cpu1.op_class::SimdAddAcc                    0      0.00%     75.95% # Class of executed instruction
system.cpu1.op_class::SimdAlu                       0      0.00%     75.95% # Class of executed instruction
system.cpu1.op_class::SimdCmp                       0      0.00%     75.95% # Class of executed instruction
system.cpu1.op_class::SimdCvt                       0      0.00%     75.95% # Class of executed instruction
system.cpu1.op_class::SimdMisc                      0      0.00%     75.95% # Class of executed instruction
system.cpu1.op_class::SimdMult                      0      0.00%     75.95% # Class of executed instruction
system.cpu1.op_class::SimdMultAcc                   0      0.00%     75.95% # Class of executed instruction
system.cpu1.op_class::SimdShift                     0      0.00%     75.95% # Class of executed instruction
system.cpu1.op_class::SimdShiftAcc                  0      0.00%     75.95% # Class of executed instruction
system.cpu1.op_class::SimdSqrt                      0      0.00%     75.95% # Class of executed instruction
system.cpu1.op_class::SimdFloatAdd                  0      0.00%     75.95% # Class of executed instruction
system.cpu1.op_class::SimdFloatAlu                  0      0.00%     75.95% # Class of executed instruction
system.cpu1.op_class::SimdFloatCmp                  0      0.00%     75.95% # Class of executed instruction
system.cpu1.op_class::SimdFloatCvt                  0      0.00%     75.95% # Class of executed instruction
system.cpu1.op_class::SimdFloatDiv                  0      0.00%     75.95% # Class of executed instruction
system.cpu1.op_class::SimdFloatMisc                 0      0.00%     75.95% # Class of executed instruction
system.cpu1.op_class::SimdFloatMult                 0      0.00%     75.95% # Class of executed instruction
system.cpu1.op_class::SimdFloatMultAcc              0      0.00%     75.95% # Class of executed instruction
system.cpu1.op_class::SimdFloatSqrt                 0      0.00%     75.95% # Class of executed instruction
system.cpu1.op_class::MemRead                  266499     15.03%     90.98% # Class of executed instruction
system.cpu1.op_class::MemWrite                 159864      9.02%    100.00% # Class of executed instruction
system.cpu1.op_class::IprAccess                     0      0.00%    100.00% # Class of executed instruction
system.cpu1.op_class::InstPrefetch                  0      0.00%    100.00% # Class of executed instruction
system.cpu1.op_class::total                   1772695                       # Class of executed instruction
system.cpu2.apic_clk_domain.clock                8000                       # Clock period in ticks
system.cpu2.numCycles                      2260138196                       # number of cpu cycles simulated
system.cpu2.numWorkItemsStarted                     0                       # number of work items this cpu started
system.cpu2.numWorkItemsCompleted                   0                       # number of work items this cpu completed
system.cpu2.kern.inst.arm                           0                       # number of arm instructions executed
system.cpu2.kern.inst.quiesce                       0                       # number of quiesce instructions executed
system.cpu2.committedInsts                  533840993                       # Number of instructions committed
system.cpu2.committedOps                    709149917                       # Number of ops (including micro ops) committed
system.cpu2.num_int_alu_accesses            508773093                       # Number of integer alu accesses
system.cpu2.num_fp_alu_accesses             331101068                       # Number of float alu accesses
system.cpu2.num_func_calls                     431833                       # number of times a function call or return occured
system.cpu2.num_conditional_control_insts     31465885                       # number of instructions that are conditional controls
system.cpu2.num_int_insts                   508773093                       # number of integer instructions
system.cpu2.num_fp_insts                    331101068                       # number of float instructions
system.cpu2.num_int_register_reads         1070049267                       # number of times the integer registers were read
system.cpu2.num_int_register_writes         339817590                       # number of times the integer registers were written
system.cpu2.num_fp_register_reads           564014582                       # number of times the floating registers were read
system.cpu2.num_fp_register_writes          276695748                       # number of times the floating registers were written
system.cpu2.num_cc_register_reads           220277312                       # number of times the CC registers were read
system.cpu2.num_cc_register_writes          241352812                       # number of times the CC registers were written
system.cpu2.num_mem_refs                    152830244                       # number of memory refs
system.cpu2.num_load_insts                   94756548                       # Number of load instructions
system.cpu2.num_store_insts                  58073696                       # Number of store instructions
system.cpu2.num_idle_cycles              8690895.825099                       # Number of idle cycles
system.cpu2.num_busy_cycles              2251447300.174901                       # Number of busy cycles
system.cpu2.not_idle_fraction                0.996155                       # Percentage of non-idle cycles
system.cpu2.idle_fraction                    0.003845                       # Percentage of idle cycles
system.cpu2.Branches                         33876679                       # Number of branches fetched
system.cpu2.op_class::No_OpClass               954899      0.13%      0.13% # Class of executed instruction
system.cpu2.op_class::IntAlu                444053823     62.62%     62.75% # Class of executed instruction
system.cpu2.op_class::IntMult                   24400      0.00%     62.76% # Class of executed instruction
system.cpu2.op_class::IntDiv                   145121      0.02%     62.78% # Class of executed instruction
system.cpu2.op_class::FloatAdd              111149730     15.67%     78.45% # Class of executed instruction
system.cpu2.op_class::FloatCmp                      0      0.00%     78.45% # Class of executed instruction
system.cpu2.op_class::FloatCvt                      0      0.00%     78.45% # Class of executed instruction
system.cpu2.op_class::FloatMult                     0      0.00%     78.45% # Class of executed instruction
system.cpu2.op_class::FloatDiv                      0      0.00%     78.45% # Class of executed instruction
system.cpu2.op_class::FloatSqrt                     0      0.00%     78.45% # Class of executed instruction
system.cpu2.op_class::SimdAdd                       0      0.00%     78.45% # Class of executed instruction
system.cpu2.op_class::SimdAddAcc                    0      0.00%     78.45% # Class of executed instruction
system.cpu2.op_class::SimdAlu                       0      0.00%     78.45% # Class of executed instruction
system.cpu2.op_class::SimdCmp                       0      0.00%     78.45% # Class of executed instruction
system.cpu2.op_class::SimdCvt                       0      0.00%     78.45% # Class of executed instruction
system.cpu2.op_class::SimdMisc                      0      0.00%     78.45% # Class of executed instruction
system.cpu2.op_class::SimdMult                      0      0.00%     78.45% # Class of executed instruction
system.cpu2.op_class::SimdMultAcc                   0      0.00%     78.45% # Class of executed instruction
system.cpu2.op_class::SimdShift                     0      0.00%     78.45% # Class of executed instruction
system.cpu2.op_class::SimdShiftAcc                  0      0.00%     78.45% # Class of executed instruction
system.cpu2.op_class::SimdSqrt                      0      0.00%     78.45% # Class of executed instruction
system.cpu2.op_class::SimdFloatAdd                  0      0.00%     78.45% # Class of executed instruction
system.cpu2.op_class::SimdFloatAlu                  0      0.00%     78.45% # Class of executed instruction
system.cpu2.op_class::SimdFloatCmp                  0      0.00%     78.45% # Class of executed instruction
system.cpu2.op_class::SimdFloatCvt                  0      0.00%     78.45% # Class of executed instruction
system.cpu2.op_class::SimdFloatDiv                  0      0.00%     78.45% # Class of executed instruction
system.cpu2.op_class::SimdFloatMisc                 0      0.00%     78.45% # Class of executed instruction
system.cpu2.op_class::SimdFloatMult                 0      0.00%     78.45% # Class of executed instruction
system.cpu2.op_class::SimdFloatMultAcc              0      0.00%     78.45% # Class of executed instruction
system.cpu2.op_class::SimdFloatSqrt                 0      0.00%     78.45% # Class of executed instruction
system.cpu2.op_class::MemRead                94756548     13.36%     91.81% # Class of executed instruction
system.cpu2.op_class::MemWrite               58073696      8.19%    100.00% # Class of executed instruction
system.cpu2.op_class::IprAccess                     0      0.00%    100.00% # Class of executed instruction
system.cpu2.op_class::InstPrefetch                  0      0.00%    100.00% # Class of executed instruction
system.cpu2.op_class::total                 709158217                       # Class of executed instruction
system.cpu3.apic_clk_domain.clock                8000                       # Clock period in ticks
system.cpu3.numCycles                      2255498611                       # number of cpu cycles simulated
system.cpu3.numWorkItemsStarted                     0                       # number of work items this cpu started
system.cpu3.numWorkItemsCompleted                   0                       # number of work items this cpu completed
system.cpu3.kern.inst.arm                           0                       # number of arm instructions executed
system.cpu3.kern.inst.quiesce                       0                       # number of quiesce instructions executed
system.cpu3.committedInsts                     795821                       # Number of instructions committed
system.cpu3.committedOps                      1720425                       # Number of ops (including micro ops) committed
system.cpu3.num_int_alu_accesses              1683694                       # Number of integer alu accesses
system.cpu3.num_fp_alu_accesses                     0                       # Number of float alu accesses
system.cpu3.num_func_calls                      50364                       # number of times a function call or return occured
system.cpu3.num_conditional_control_insts       114811                       # number of instructions that are conditional controls
system.cpu3.num_int_insts                     1683694                       # number of integer instructions
system.cpu3.num_fp_insts                            0                       # number of float instructions
system.cpu3.num_int_register_reads            3426069                       # number of times the integer registers were read
system.cpu3.num_int_register_writes           1393195                       # number of times the integer registers were written
system.cpu3.num_fp_register_reads                   0                       # number of times the floating registers were read
system.cpu3.num_fp_register_writes                  0                       # number of times the floating registers were written
system.cpu3.num_cc_register_reads              914848                       # number of times the CC registers were read
system.cpu3.num_cc_register_writes             497842                       # number of times the CC registers were written
system.cpu3.num_mem_refs                       413479                       # number of memory refs
system.cpu3.num_load_insts                     258001                       # Number of load instructions
system.cpu3.num_store_insts                    155478                       # Number of store instructions
system.cpu3.num_idle_cycles              2251922567.051975                       # Number of idle cycles
system.cpu3.num_busy_cycles              3576043.948025                       # Number of busy cycles
system.cpu3.not_idle_fraction                0.001585                       # Percentage of non-idle cycles
system.cpu3.idle_fraction                    0.998415                       # Percentage of idle cycles
system.cpu3.Branches                           181249                       # Number of branches fetched
system.cpu3.op_class::No_OpClass                28256      1.64%      1.64% # Class of executed instruction
system.cpu3.op_class::IntAlu                  1265339     73.55%     75.19% # Class of executed instruction
system.cpu3.op_class::IntMult                    3330      0.19%     75.38% # Class of executed instruction
system.cpu3.op_class::IntDiv                    10024      0.58%     75.97% # Class of executed instruction
system.cpu3.op_class::FloatAdd                      0      0.00%     75.97% # Class of executed instruction
system.cpu3.op_class::FloatCmp                      0      0.00%     75.97% # Class of executed instruction
system.cpu3.op_class::FloatCvt                      0      0.00%     75.97% # Class of executed instruction
system.cpu3.op_class::FloatMult                     0      0.00%     75.97% # Class of executed instruction
system.cpu3.op_class::FloatDiv                      0      0.00%     75.97% # Class of executed instruction
system.cpu3.op_class::FloatSqrt                     0      0.00%     75.97% # Class of executed instruction
system.cpu3.op_class::SimdAdd                       0      0.00%     75.97% # Class of executed instruction
system.cpu3.op_class::SimdAddAcc                    0      0.00%     75.97% # Class of executed instruction
system.cpu3.op_class::SimdAlu                       0      0.00%     75.97% # Class of executed instruction
system.cpu3.op_class::SimdCmp                       0      0.00%     75.97% # Class of executed instruction
system.cpu3.op_class::SimdCvt                       0      0.00%     75.97% # Class of executed instruction
system.cpu3.op_class::SimdMisc                      0      0.00%     75.97% # Class of executed instruction
system.cpu3.op_class::SimdMult                      0      0.00%     75.97% # Class of executed instruction
system.cpu3.op_class::SimdMultAcc                   0      0.00%     75.97% # Class of executed instruction
system.cpu3.op_class::SimdShift                     0      0.00%     75.97% # Class of executed instruction
system.cpu3.op_class::SimdShiftAcc                  0      0.00%     75.97% # Class of executed instruction
system.cpu3.op_class::SimdSqrt                      0      0.00%     75.97% # Class of executed instruction
system.cpu3.op_class::SimdFloatAdd                  0      0.00%     75.97% # Class of executed instruction
system.cpu3.op_class::SimdFloatAlu                  0      0.00%     75.97% # Class of executed instruction
system.cpu3.op_class::SimdFloatCmp                  0      0.00%     75.97% # Class of executed instruction
system.cpu3.op_class::SimdFloatCvt                  0      0.00%     75.97% # Class of executed instruction
system.cpu3.op_class::SimdFloatDiv                  0      0.00%     75.97% # Class of executed instruction
system.cpu3.op_class::SimdFloatMisc                 0      0.00%     75.97% # Class of executed instruction
system.cpu3.op_class::SimdFloatMult                 0      0.00%     75.97% # Class of executed instruction
system.cpu3.op_class::SimdFloatMultAcc              0      0.00%     75.97% # Class of executed instruction
system.cpu3.op_class::SimdFloatSqrt                 0      0.00%     75.97% # Class of executed instruction
system.cpu3.op_class::MemRead                  258001     15.00%     90.96% # Class of executed instruction
system.cpu3.op_class::MemWrite                 155478      9.04%    100.00% # Class of executed instruction
system.cpu3.op_class::IprAccess                     0      0.00%    100.00% # Class of executed instruction
system.cpu3.op_class::InstPrefetch                  0      0.00%    100.00% # Class of executed instruction
system.cpu3.op_class::total                   1720428                       # Class of executed instruction
system.iobus.trans_dist::ReadReq                  711                       # Transaction distribution
system.iobus.trans_dist::ReadResp                 711                       # Transaction distribution
system.iobus.trans_dist::WriteReq                1399                       # Transaction distribution
system.iobus.trans_dist::WriteResp               1399                       # Transaction distribution
system.iobus.trans_dist::MessageReq                12                       # Transaction distribution
system.iobus.trans_dist::MessageResp               12                       # Transaction distribution
system.iobus.pkt_count_system.pc.south_bridge.io_apic.int_master::system.ruby.l1_cntrl0.sequencer.pio-slave-port            2                       # Packet count per connected master and slave (bytes)
system.iobus.pkt_count_system.pc.south_bridge.io_apic.int_master::system.ruby.l1_cntrl1.sequencer.pio-slave-port            2                       # Packet count per connected master and slave (bytes)
system.iobus.pkt_count_system.pc.south_bridge.io_apic.int_master::system.ruby.l1_cntrl2.sequencer.pio-slave-port            2                       # Packet count per connected master and slave (bytes)
system.iobus.pkt_count_system.pc.south_bridge.io_apic.int_master::system.ruby.l1_cntrl3.sequencer.pio-slave-port            2                       # Packet count per connected master and slave (bytes)
system.iobus.pkt_count_system.pc.south_bridge.io_apic.int_master::total            8                       # Packet count per connected master and slave (bytes)
system.iobus.pkt_count_system.ruby.l1_cntrl0.sequencer.mem-master-port::system.pc.south_bridge.io_apic.pio            8                       # Packet count per connected master and slave (bytes)
system.iobus.pkt_count_system.ruby.l1_cntrl0.sequencer.mem-master-port::system.ruby.l1_cntrl0.sequencer.pio-slave-port          586                       # Packet count per connected master and slave (bytes)
system.iobus.pkt_count_system.ruby.l1_cntrl0.sequencer.mem-master-port::system.ruby.l1_cntrl1.sequencer.pio-slave-port            2                       # Packet count per connected master and slave (bytes)
system.iobus.pkt_count_system.ruby.l1_cntrl0.sequencer.mem-master-port::system.ruby.l1_cntrl2.sequencer.pio-slave-port            2                       # Packet count per connected master and slave (bytes)
system.iobus.pkt_count_system.ruby.l1_cntrl0.sequencer.mem-master-port::system.ruby.l1_cntrl3.sequencer.pio-slave-port            2                       # Packet count per connected master and slave (bytes)
system.iobus.pkt_count_system.ruby.l1_cntrl0.sequencer.mem-master-port::total          600                       # Packet count per connected master and slave (bytes)
system.iobus.pkt_count_system.ruby.l1_cntrl1.sequencer.mem-master-port::system.pc.south_bridge.io_apic.pio            6                       # Packet count per connected master and slave (bytes)
system.iobus.pkt_count_system.ruby.l1_cntrl1.sequencer.mem-master-port::system.pc.com_1.pio          130                       # Packet count per connected master and slave (bytes)
system.iobus.pkt_count_system.ruby.l1_cntrl1.sequencer.mem-master-port::system.ruby.l1_cntrl1.sequencer.pio-slave-port          578                       # Packet count per connected master and slave (bytes)
system.iobus.pkt_count_system.ruby.l1_cntrl1.sequencer.mem-master-port::system.ruby.l1_cntrl2.sequencer.pio-slave-port            2                       # Packet count per connected master and slave (bytes)
system.iobus.pkt_count_system.ruby.l1_cntrl1.sequencer.mem-master-port::total          716                       # Packet count per connected master and slave (bytes)
system.iobus.pkt_count_system.ruby.l1_cntrl2.sequencer.mem-master-port::system.pc.south_bridge.io_apic.pio            8                       # Packet count per connected master and slave (bytes)
system.iobus.pkt_count_system.ruby.l1_cntrl2.sequencer.mem-master-port::system.ruby.l1_cntrl1.sequencer.pio-slave-port            4                       # Packet count per connected master and slave (bytes)
system.iobus.pkt_count_system.ruby.l1_cntrl2.sequencer.mem-master-port::system.ruby.l1_cntrl2.sequencer.pio-slave-port          588                       # Packet count per connected master and slave (bytes)
system.iobus.pkt_count_system.ruby.l1_cntrl2.sequencer.mem-master-port::system.ruby.l1_cntrl3.sequencer.pio-slave-port            2                       # Packet count per connected master and slave (bytes)
system.iobus.pkt_count_system.ruby.l1_cntrl2.sequencer.mem-master-port::total          602                       # Packet count per connected master and slave (bytes)
system.iobus.pkt_count_system.ruby.l1_cntrl3.sequencer.mem-master-port::system.pc.south_bridge.io_apic.pio            6                       # Packet count per connected master and slave (bytes)
system.iobus.pkt_count_system.ruby.l1_cntrl3.sequencer.mem-master-port::system.pc.com_1.pio         1734                       # Packet count per connected master and slave (bytes)
system.iobus.pkt_count_system.ruby.l1_cntrl3.sequencer.mem-master-port::system.ruby.l1_cntrl0.sequencer.pio-slave-port            2                       # Packet count per connected master and slave (bytes)
system.iobus.pkt_count_system.ruby.l1_cntrl3.sequencer.mem-master-port::system.ruby.l1_cntrl3.sequencer.pio-slave-port          576                       # Packet count per connected master and slave (bytes)
system.iobus.pkt_count_system.ruby.l1_cntrl3.sequencer.mem-master-port::total         2318                       # Packet count per connected master and slave (bytes)
system.iobus.pkt_count::total                    4244                       # Packet count per connected master and slave (bytes)
system.iobus.pkt_size_system.pc.south_bridge.io_apic.int_master::system.ruby.l1_cntrl0.sequencer.pio-slave-port            4                       # Cumulative packet size per connected master and slave (bytes)
system.iobus.pkt_size_system.pc.south_bridge.io_apic.int_master::system.ruby.l1_cntrl1.sequencer.pio-slave-port            4                       # Cumulative packet size per connected master and slave (bytes)
system.iobus.pkt_size_system.pc.south_bridge.io_apic.int_master::system.ruby.l1_cntrl2.sequencer.pio-slave-port            4                       # Cumulative packet size per connected master and slave (bytes)
system.iobus.pkt_size_system.pc.south_bridge.io_apic.int_master::system.ruby.l1_cntrl3.sequencer.pio-slave-port            4                       # Cumulative packet size per connected master and slave (bytes)
system.iobus.pkt_size_system.pc.south_bridge.io_apic.int_master::total           16                       # Cumulative packet size per connected master and slave (bytes)
system.iobus.pkt_size_system.ruby.l1_cntrl0.sequencer.mem-master-port::system.pc.south_bridge.io_apic.pio           16                       # Cumulative packet size per connected master and slave (bytes)
system.iobus.pkt_size_system.ruby.l1_cntrl0.sequencer.mem-master-port::system.ruby.l1_cntrl0.sequencer.pio-slave-port         1172                       # Cumulative packet size per connected master and slave (bytes)
system.iobus.pkt_size_system.ruby.l1_cntrl0.sequencer.mem-master-port::system.ruby.l1_cntrl1.sequencer.pio-slave-port            4                       # Cumulative packet size per connected master and slave (bytes)
system.iobus.pkt_size_system.ruby.l1_cntrl0.sequencer.mem-master-port::system.ruby.l1_cntrl2.sequencer.pio-slave-port            4                       # Cumulative packet size per connected master and slave (bytes)
system.iobus.pkt_size_system.ruby.l1_cntrl0.sequencer.mem-master-port::system.ruby.l1_cntrl3.sequencer.pio-slave-port            4                       # Cumulative packet size per connected master and slave (bytes)
system.iobus.pkt_size_system.ruby.l1_cntrl0.sequencer.mem-master-port::total         1200                       # Cumulative packet size per connected master and slave (bytes)
system.iobus.pkt_size_system.ruby.l1_cntrl1.sequencer.mem-master-port::system.pc.south_bridge.io_apic.pio           12                       # Cumulative packet size per connected master and slave (bytes)
system.iobus.pkt_size_system.ruby.l1_cntrl1.sequencer.mem-master-port::system.pc.com_1.pio           65                       # Cumulative packet size per connected master and slave (bytes)
system.iobus.pkt_size_system.ruby.l1_cntrl1.sequencer.mem-master-port::system.ruby.l1_cntrl1.sequencer.pio-slave-port         1156                       # Cumulative packet size per connected master and slave (bytes)
system.iobus.pkt_size_system.ruby.l1_cntrl1.sequencer.mem-master-port::system.ruby.l1_cntrl2.sequencer.pio-slave-port            4                       # Cumulative packet size per connected master and slave (bytes)
system.iobus.pkt_size_system.ruby.l1_cntrl1.sequencer.mem-master-port::total         1237                       # Cumulative packet size per connected master and slave (bytes)
system.iobus.pkt_size_system.ruby.l1_cntrl2.sequencer.mem-master-port::system.pc.south_bridge.io_apic.pio           16                       # Cumulative packet size per connected master and slave (bytes)
system.iobus.pkt_size_system.ruby.l1_cntrl2.sequencer.mem-master-port::system.ruby.l1_cntrl1.sequencer.pio-slave-port            8                       # Cumulative packet size per connected master and slave (bytes)
system.iobus.pkt_size_system.ruby.l1_cntrl2.sequencer.mem-master-port::system.ruby.l1_cntrl2.sequencer.pio-slave-port         1176                       # Cumulative packet size per connected master and slave (bytes)
system.iobus.pkt_size_system.ruby.l1_cntrl2.sequencer.mem-master-port::system.ruby.l1_cntrl3.sequencer.pio-slave-port            4                       # Cumulative packet size per connected master and slave (bytes)
system.iobus.pkt_size_system.ruby.l1_cntrl2.sequencer.mem-master-port::total         1204                       # Cumulative packet size per connected master and slave (bytes)
system.iobus.pkt_size_system.ruby.l1_cntrl3.sequencer.mem-master-port::system.pc.south_bridge.io_apic.pio           12                       # Cumulative packet size per connected master and slave (bytes)
system.iobus.pkt_size_system.ruby.l1_cntrl3.sequencer.mem-master-port::system.pc.com_1.pio          867                       # Cumulative packet size per connected master and slave (bytes)
system.iobus.pkt_size_system.ruby.l1_cntrl3.sequencer.mem-master-port::system.ruby.l1_cntrl0.sequencer.pio-slave-port            4                       # Cumulative packet size per connected master and slave (bytes)
system.iobus.pkt_size_system.ruby.l1_cntrl3.sequencer.mem-master-port::system.ruby.l1_cntrl3.sequencer.pio-slave-port         1152                       # Cumulative packet size per connected master and slave (bytes)
system.iobus.pkt_size_system.ruby.l1_cntrl3.sequencer.mem-master-port::total         2035                       # Cumulative packet size per connected master and slave (bytes)
system.iobus.pkt_size::total                     5692                       # Cumulative packet size per connected master and slave (bytes)
system.iobus.reqLayer8.occupancy                25496                       # Layer occupancy (ticks)
system.iobus.reqLayer8.utilization                0.0                       # Layer utilization (%)
system.iobus.reqLayer12.occupancy             1186500                       # Layer occupancy (ticks)
system.iobus.reqLayer12.utilization               0.0                       # Layer utilization (%)
system.iobus.reqLayer17.occupancy              731498                       # Layer occupancy (ticks)
system.iobus.reqLayer17.utilization               0.0                       # Layer utilization (%)
system.iobus.reqLayer18.occupancy              728500                       # Layer occupancy (ticks)
system.iobus.reqLayer18.utilization               0.0                       # Layer utilization (%)
system.iobus.reqLayer19.occupancy              788261                       # Layer occupancy (ticks)
system.iobus.reqLayer19.utilization               0.0                       # Layer utilization (%)
system.iobus.reqLayer20.occupancy              724000                       # Layer occupancy (ticks)
system.iobus.reqLayer20.utilization               0.0                       # Layer utilization (%)
system.iobus.respLayer0.occupancy                4500                       # Layer occupancy (ticks)
system.iobus.respLayer0.utilization               0.0                       # Layer utilization (%)
system.iobus.respLayer2.occupancy              451500                       # Layer occupancy (ticks)
system.iobus.respLayer2.utilization               0.0                       # Layer utilization (%)
system.iobus.respLayer4.occupancy              551500                       # Layer occupancy (ticks)
system.iobus.respLayer4.utilization               0.0                       # Layer utilization (%)
system.iobus.respLayer6.occupancy              453500                       # Layer occupancy (ticks)
system.iobus.respLayer6.utilization               0.0                       # Layer utilization (%)
system.iobus.respLayer8.occupancy             1955000                       # Layer occupancy (ticks)
system.iobus.respLayer8.utilization               0.0                       # Layer utilization (%)
system.pc.south_bridge.ide.disks.dma_read_full_pages            0                       # Number of full page size DMA reads (not PRD).
system.pc.south_bridge.ide.disks.dma_read_bytes            0                       # Number of bytes transfered via DMA reads (not PRD).
system.pc.south_bridge.ide.disks.dma_read_txs            0                       # Number of DMA read transactions (not PRD).
system.pc.south_bridge.ide.disks.dma_write_full_pages            0                       # Number of full page size DMA writes.
system.pc.south_bridge.ide.disks.dma_write_bytes            0                       # Number of bytes transfered via DMA writes.
system.pc.south_bridge.ide.disks.dma_write_txs            0                       # Number of DMA write transactions.
system.ruby.clk_domain.clock                      500                       # Clock period in ticks
system.ruby.outstanding_req_hist_seqr::bucket_size            1                      
system.ruby.outstanding_req_hist_seqr::max_bucket            9                      
system.ruby.outstanding_req_hist_seqr::samples    936025115                      
system.ruby.outstanding_req_hist_seqr::mean     1.000000                      
system.ruby.outstanding_req_hist_seqr::gmean     1.000000                      
system.ruby.outstanding_req_hist_seqr::stdev     0.000502                      
system.ruby.outstanding_req_hist_seqr    |           0      0.00%      0.00% |   936024879    100.00%    100.00% |         236      0.00%    100.00% |           0      0.00%    100.00% |           0      0.00%    100.00% |           0      0.00%    100.00% |           0      0.00%    100.00% |           0      0.00%    100.00% |           0      0.00%    100.00% |           0      0.00%    100.00%
system.ruby.outstanding_req_hist_seqr::total    936025115                      
system.ruby.latency_hist_seqr::bucket_size          256                      
system.ruby.latency_hist_seqr::max_bucket         2559                      
system.ruby.latency_hist_seqr::samples      936025115                      
system.ruby.latency_hist_seqr::mean          1.423381                      
system.ruby.latency_hist_seqr::gmean         1.025267                      
system.ruby.latency_hist_seqr::stdev         8.408263                      
system.ruby.latency_hist_seqr            |   935930840     99.99%     99.99% |       49182      0.01%    100.00% |       38755      0.00%    100.00% |        4669      0.00%    100.00% |        1301      0.00%    100.00% |         268      0.00%    100.00% |          93      0.00%    100.00% |           6      0.00%    100.00% |           1      0.00%    100.00% |           0      0.00%    100.00%
system.ruby.latency_hist_seqr::total        936025115                      
system.ruby.hit_latency_hist_seqr::bucket_size            2                      
system.ruby.hit_latency_hist_seqr::max_bucket           19                      
system.ruby.hit_latency_hist_seqr::samples    933351501                      
system.ruby.hit_latency_hist_seqr::mean      1.047084                      
system.ruby.hit_latency_hist_seqr::gmean     1.011354                      
system.ruby.hit_latency_hist_seqr::stdev     0.684557                      
system.ruby.hit_latency_hist_seqr        |   928956953     99.53%     99.53% |           0      0.00%     99.53% |           0      0.00%     99.53% |           0      0.00%     99.53% |           0      0.00%     99.53% |     4394548      0.47%    100.00% |           0      0.00%    100.00% |           0      0.00%    100.00% |           0      0.00%    100.00% |           0      0.00%    100.00%
system.ruby.hit_latency_hist_seqr::total    933351501                      
system.ruby.miss_latency_hist_seqr::bucket_size          256                      
[...]
system.ruby.L1Cache_Controller.O.Trigger_L2_to_L1I::total        24143                      
system.ruby.L1Cache_Controller.O.Other_GETX |        1951     23.10%     23.10% |        1746     20.67%     43.77% |        1264     14.96%     58.73% |        3486     41.27%    100.00%
system.ruby.L1Cache_Controller.O.Other_GETX::total         8447                      
system.ruby.L1Cache_Controller.O.Other_GETS |        3965     32.16%     32.16% |        1832     14.86%     47.02% |        1805     14.64%     61.66% |        4726     38.34%    100.00%
system.ruby.L1Cache_Controller.O.Other_GETS::total        12328                      
system.ruby.L1Cache_Controller.O.Merged_GETS |           0      0.00%      0.00% |           0      0.00%      0.00% |           0      0.00%      0.00% |           1    100.00%    100.00%
system.ruby.L1Cache_Controller.O.Merged_GETS::total            1                      
system.ruby.L1Cache_Controller.M.Load    |      177010      0.54%      0.54% |       81229      0.25%      0.79% |    32269572     99.00%     99.79% |       69212      0.21%    100.00%
system.ruby.L1Cache_Controller.M.Load::total     32597023                      
system.ruby.L1Cache_Controller.M.Ifetch  |     3323678      0.44%      0.44% |     1316915      0.18%      0.62% |   746943361     99.38%     99.99% |       43798      0.01%    100.00%
system.ruby.L1Cache_Controller.M.Ifetch::total    751627752                      
system.ruby.L1Cache_Controller.M.Store   |       17332      3.07%      3.07% |        2371      0.42%      3.49% |      542701     96.14%     99.63% |        2075      0.37%    100.00%
system.ruby.L1Cache_Controller.M.Store::total       564479                      
system.ruby.L1Cache_Controller.M.L2_Replacement |        1381      0.13%      0.13% |           5      0.00%      0.13% |     1052562     99.87%    100.00% |           2      0.00%    100.00%
system.ruby.L1Cache_Controller.M.L2_Replacement::total      1053950                      
system.ruby.L1Cache_Controller.M.L1_to_L2 |       12549      0.72%      0.72% |        5371      0.31%      1.02% |     1732554     98.75%     99.77% |        3999      0.23%    100.00%
system.ruby.L1Cache_Controller.M.L1_to_L2::total      1754473                      
system.ruby.L1Cache_Controller.M.Trigger_L2_to_L1D |        3875      0.57%      0.57% |        1404      0.21%      0.78% |      668646     99.12%     99.90% |         651      0.10%    100.00%
system.ruby.L1Cache_Controller.M.Trigger_L2_to_L1D::total       674576                      
system.ruby.L1Cache_Controller.M.Trigger_L2_to_L1I |        2982     37.08%     37.08% |        1224     15.22%     52.29% |        3590     44.64%     96.93% |         247      3.07%    100.00%
system.ruby.L1Cache_Controller.M.Trigger_L2_to_L1I::total         8043                      
system.ruby.L1Cache_Controller.M.Other_GETX |         908     43.93%     43.93% |         608     29.41%     73.34% |         260     12.58%     85.92% |         291     14.08%    100.00%
system.ruby.L1Cache_Controller.M.Other_GETX::total         2067                      
system.ruby.L1Cache_Controller.M.Other_GETS |        3125     22.77%     22.77% |        2819     20.54%     43.30% |        2922     21.29%     64.59% |        4860     35.41%    100.00%
system.ruby.L1Cache_Controller.M.Other_GETS::total        13726                      
system.ruby.L1Cache_Controller.M.Merged_GETS |           2      2.06%      2.06% |           3      3.09%      5.15% |           5      5.15%     10.31% |          87     89.69%    100.00%
system.ruby.L1Cache_Controller.M.Merged_GETS::total           97                      
system.ruby.L1Cache_Controller.MM.Load   |     2224132      3.32%      3.32% |      533862      0.80%      4.12% |    63868970     95.35%     99.47% |      355648      0.53%    100.00%
system.ruby.L1Cache_Controller.MM.Load::total     66982612                      
system.ruby.L1Cache_Controller.MM.Store  |     2122866      3.69%      3.69% |      593214      1.03%      4.72% |    54522114     94.65%     99.37% |      364680      0.63%    100.00%
system.ruby.L1Cache_Controller.MM.Store::total     57602874                      
system.ruby.L1Cache_Controller.MM.L2_Replacement |        8518      0.55%      0.55% |          16      0.00%      0.55% |     1550564     99.45%    100.00% |           4      0.00%    100.00%
system.ruby.L1Cache_Controller.MM.L2_Replacement::total      1559102                      
system.ruby.L1Cache_Controller.MM.L1_to_L2 |       98032      1.85%      1.85% |       15577      0.29%      2.15% |     5171807     97.72%     99.87% |        7014      0.13%    100.00%
system.ruby.L1Cache_Controller.MM.L1_to_L2::total      5292430                      
system.ruby.L1Cache_Controller.MM.Trigger_L2_to_L1D |       68964      1.87%      1.87% |        5543      0.15%      2.02% |     3603249     97.91%     99.93% |        2583      0.07%    100.00%
system.ruby.L1Cache_Controller.MM.Trigger_L2_to_L1D::total      3680339                      
system.ruby.L1Cache_Controller.MM.Other_GETX |        2760     21.12%     21.12% |        3293     25.20%     46.33% |        4140     31.69%     78.01% |        2873     21.99%    100.00%
system.ruby.L1Cache_Controller.MM.Other_GETX::total        13066                      
system.ruby.L1Cache_Controller.MM.Other_GETS |        6879     23.04%     23.04% |        5881     19.69%     42.73% |       13977     46.81%     89.54% |        3125     10.46%    100.00%
system.ruby.L1Cache_Controller.MM.Other_GETS::total        29862                      
system.ruby.L1Cache_Controller.MM.Merged_GETS |          78     18.27%     18.27% |         126     29.51%     47.78% |         115     26.93%     74.71% |         108     25.29%    100.00%
system.ruby.L1Cache_Controller.MM.Merged_GETS::total          427                      
system.ruby.L1Cache_Controller.SR.Load   |        8520     15.98%     15.98% |        1554      2.91%     18.90% |       41937     78.66%     97.56% |        1300      2.44%    100.00%
system.ruby.L1Cache_Controller.SR.Load::total        53311                      
system.ruby.L1Cache_Controller.SR.Ifetch |       35626     43.35%     43.35% |       14735     17.93%     61.27% |       17728     21.57%     82.84% |       14101     17.16%    100.00%
system.ruby.L1Cache_Controller.SR.Ifetch::total        82190                      
system.ruby.L1Cache_Controller.SR.Store  |         167     43.72%     43.72% |          73     19.11%     62.83% |         138     36.13%     98.95% |           4      1.05%    100.00%
system.ruby.L1Cache_Controller.SR.Store::total          382                      
system.ruby.L1Cache_Controller.OR.Load   |        1191     13.14%     13.14% |         354      3.91%     17.05% |        7123     78.59%     95.63% |         396      4.37%    100.00%
system.ruby.L1Cache_Controller.OR.Load::total         9064                      
system.ruby.L1Cache_Controller.OR.Ifetch |        6591     27.30%     27.30% |        5922     24.53%     51.83% |       11064     45.83%     97.66% |         566      2.34%    100.00%
system.ruby.L1Cache_Controller.OR.Ifetch::total        24143                      
system.ruby.L1Cache_Controller.OR.Store  |          13     36.11%     36.11% |          15     41.67%     77.78% |           5     13.89%     91.67% |           3      8.33%    100.00%
system.ruby.L1Cache_Controller.OR.Store::total           36                      
system.ruby.L1Cache_Controller.MR.Load   |        3120      0.46%      0.46% |        1084      0.16%      0.62% |      668120     99.29%     99.91% |         574      0.09%    100.00%
system.ruby.L1Cache_Controller.MR.Load::total       672898                      
system.ruby.L1Cache_Controller.MR.Ifetch |        2982     37.08%     37.08% |        1224     15.22%     52.29% |        3590     44.64%     96.93% |         247      3.07%    100.00%
system.ruby.L1Cache_Controller.MR.Ifetch::total         8043                      
system.ruby.L1Cache_Controller.MR.Store  |         755     44.99%     44.99% |         320     19.07%     64.06% |         526     31.35%     95.41% |          77      4.59%    100.00%
system.ruby.L1Cache_Controller.MR.Store::total         1678                      
system.ruby.L1Cache_Controller.MMR.Load  |       49336      3.99%      3.99% |        3865      0.31%      4.30% |     1182941     95.63%     99.93% |         827      0.07%    100.00%
system.ruby.L1Cache_Controller.MMR.Load::total      1236969                      
system.ruby.L1Cache_Controller.MMR.Store |       19628      0.80%      0.80% |        1678      0.07%      0.87% |     2420308     99.06%     99.93% |        1756      0.07%    100.00%
system.ruby.L1Cache_Controller.MMR.Store::total      2443370                      
system.ruby.L1Cache_Controller.IM.Ack    |       19875      0.64%      0.64% |       26017      0.83%      1.47% |     3069133     98.19%     99.66% |       10760      0.34%    100.00%
system.ruby.L1Cache_Controller.IM.Ack::total      3125785                      
system.ruby.L1Cache_Controller.IM.Data   |        1566     55.45%     55.45% |         467     16.54%     71.99% |         338     11.97%     83.96% |         453     16.04%    100.00%
system.ruby.L1Cache_Controller.IM.Data::total         2824                      
system.ruby.L1Cache_Controller.IM.Exclusive_Data |       10985      1.05%      1.05% |        9377      0.89%      1.94% |     1026330     97.65%     99.58% |        4377      0.42%    100.00%
system.ruby.L1Cache_Controller.IM.Exclusive_Data::total      1051069                      
system.ruby.L1Cache_Controller.SM.Ack    |        3513     54.70%     54.70% |         972     15.14%     69.84% |         916     14.26%     84.10% |        1021     15.90%    100.00%
system.ruby.L1Cache_Controller.SM.Ack::total         6422                      
system.ruby.L1Cache_Controller.SM.Data   |        2590     45.60%     45.60% |        1050     18.49%     64.08% |        1066     18.77%     82.85% |         974     17.15%    100.00%
system.ruby.L1Cache_Controller.SM.Data::total         5680                      
system.ruby.L1Cache_Controller.OM.Ack    |         351     25.49%     25.49% |         537     39.00%     64.49% |         177     12.85%     77.34% |         312     22.66%    100.00%
system.ruby.L1Cache_Controller.OM.Ack::total         1377                      
system.ruby.L1Cache_Controller.OM.All_acks_no_sharers |         117     25.49%     25.49% |         179     39.00%     64.49% |          59     12.85%     77.34% |         104     22.66%    100.00%
system.ruby.L1Cache_Controller.OM.All_acks_no_sharers::total          459                      
system.ruby.L1Cache_Controller.ISM.Ack   |        2569     35.12%     35.12% |        1719     23.50%     58.62% |        1619     22.13%     80.75% |        1408     19.25%    100.00%
system.ruby.L1Cache_Controller.ISM.Ack::total         7315                      
system.ruby.L1Cache_Controller.ISM.All_acks_no_sharers |        4156     48.87%     48.87% |        1517     17.84%     66.71% |        1404     16.51%     83.22% |        1427     16.78%    100.00%
system.ruby.L1Cache_Controller.ISM.All_acks_no_sharers::total         8504                      
system.ruby.L1Cache_Controller.M_W.Load  |         100     32.79%     32.79% |         125     40.98%     73.77% |          54     17.70%     91.48% |          26      8.52%    100.00%
system.ruby.L1Cache_Controller.M_W.Load::total          305                      
system.ruby.L1Cache_Controller.M_W.Store |           5      4.39%      4.39% |          89     78.07%     82.46% |          14     12.28%     94.74% |           6      5.26%    100.00%
system.ruby.L1Cache_Controller.M_W.Store::total          114                      
system.ruby.L1Cache_Controller.M_W.Ack   |       16955     52.66%     52.66% |        3181      9.88%     62.54% |        5901     18.33%     80.87% |        6160     19.13%    100.00%
system.ruby.L1Cache_Controller.M_W.Ack::total        32197                      
system.ruby.L1Cache_Controller.M_W.All_acks_no_sharers |       25965      1.58%      1.58% |        7527      0.46%      2.03% |     1604124     97.44%     99.48% |        8599      0.52%    100.00%
system.ruby.L1Cache_Controller.M_W.All_acks_no_sharers::total      1646215                      
system.ruby.L1Cache_Controller.MM_W.Load |           0      0.00%      0.00% |           1    100.00%    100.00% |           0      0.00%    100.00% |           0      0.00%    100.00%
system.ruby.L1Cache_Controller.MM_W.Load::total            1                      
system.ruby.L1Cache_Controller.MM_W.Store |        3572     56.44%     56.44% |         509      8.04%     64.48% |        1443     22.80%     87.28% |         805     12.72%    100.00%
system.ruby.L1Cache_Controller.MM_W.Store::total         6329                      
system.ruby.L1Cache_Controller.MM_W.Ack  |        7620     48.11%     48.11% |        1312      8.28%     56.40% |        5484     34.63%     91.02% |        1422      8.98%    100.00%
system.ruby.L1Cache_Controller.MM_W.Ack::total        15838                      
system.ruby.L1Cache_Controller.MM_W.All_acks_no_sharers |       10990      1.05%      1.05% |        9466      0.90%      1.95% |     1026344     97.64%     99.58% |        4383      0.42%    100.00%
system.ruby.L1Cache_Controller.MM_W.All_acks_no_sharers::total      1051183                      
system.ruby.L1Cache_Controller.IS.Other_GETS |           0      0.00%      0.00% |           0      0.00%      0.00% |           2    100.00%    100.00% |           0      0.00%    100.00%
system.ruby.L1Cache_Controller.IS.Other_GETS::total            2                      
system.ruby.L1Cache_Controller.IS.Ack    |       50759      1.03%      1.03% |       22877      0.47%      1.50% |     4813666     98.10%     99.60% |       19472      0.40%    100.00%
system.ruby.L1Cache_Controller.IS.Ack::total      4906774                      
system.ruby.L1Cache_Controller.IS.Shared_Ack |        4929     22.60%     22.60% |        3642     16.70%     39.31% |       11287     51.76%     91.07% |        1947      8.93%    100.00%
system.ruby.L1Cache_Controller.IS.Shared_Ack::total        21805                      
system.ruby.L1Cache_Controller.IS.Data   |        1334     16.03%     16.03% |         787      9.46%     25.49% |        5595     67.25%     92.74% |         604      7.26%    100.00%
system.ruby.L1Cache_Controller.IS.Data::total         8320                      
system.ruby.L1Cache_Controller.IS.Shared_Data |        6640     24.98%     24.98% |        7593     28.57%     53.55% |        7247     27.26%     80.81% |        5100     19.19%    100.00%
system.ruby.L1Cache_Controller.IS.Shared_Data::total        26580                      
system.ruby.L1Cache_Controller.IS.Exclusive_Data |       25970      1.58%      1.58% |        7616      0.46%      2.04% |     1604138     97.44%     99.48% |        8605      0.52%    100.00%
system.ruby.L1Cache_Controller.IS.Exclusive_Data::total      1646329                      
system.ruby.L1Cache_Controller.SS.Load   |         104     27.73%     27.73% |         166     44.27%     72.00% |         101     26.93%     98.93% |           4      1.07%    100.00%
system.ruby.L1Cache_Controller.SS.Load::total          375                      
system.ruby.L1Cache_Controller.SS.Ifetch |        1413     27.55%     27.55% |        1353     26.38%     53.94% |        1783     34.77%     88.71% |         579     11.29%    100.00%
system.ruby.L1Cache_Controller.SS.Ifetch::total         5128                      
system.ruby.L1Cache_Controller.SS.Store  |           3      5.66%      5.66% |           1      1.89%      7.55% |           3      5.66%     13.21% |          46     86.79%    100.00%
system.ruby.L1Cache_Controller.SS.Store::total           53                      
system.ruby.L1Cache_Controller.SS.Ack    |        4425     24.04%     24.04% |        4774     25.94%     49.99% |        4641     25.22%     75.21% |        4563     24.79%    100.00%
system.ruby.L1Cache_Controller.SS.Ack::total        18403                      
system.ruby.L1Cache_Controller.SS.Shared_Ack |        1759     25.49%     25.49% |        1864     27.01%     52.49% |        2831     41.02%     93.51% |         448      6.49%    100.00%
system.ruby.L1Cache_Controller.SS.Shared_Ack::total         6902                      
system.ruby.L1Cache_Controller.SS.All_acks |        7753     22.42%     22.42% |        8380     24.23%     46.65% |       12751     36.87%     83.53% |        5697     16.47%    100.00%
system.ruby.L1Cache_Controller.SS.All_acks::total        34581                      
system.ruby.L1Cache_Controller.SS.All_acks_no_sharers |         221     69.28%     69.28% |           0      0.00%     69.28% |          91     28.53%     97.81% |           7      2.19%    100.00%
system.ruby.L1Cache_Controller.SS.All_acks_no_sharers::total          319                      
system.ruby.L1Cache_Controller.OI.Load   |           2    100.00%    100.00% |           0      0.00%    100.00% |           0      0.00%    100.00% |           0      0.00%    100.00%
system.ruby.L1Cache_Controller.OI.Load::total            2                      
system.ruby.L1Cache_Controller.OI.Writeback_Ack |         670     14.12%     14.12% |           3      0.06%     14.18% |        4067     85.69%     99.87% |           6      0.13%    100.00%
system.ruby.L1Cache_Controller.OI.Writeback_Ack::total         4746                      
system.ruby.L1Cache_Controller.MI.Load   |           5     18.52%     18.52% |           1      3.70%     22.22% |          21     77.78%    100.00% |           0      0.00%    100.00%
system.ruby.L1Cache_Controller.MI.Load::total           27                      
system.ruby.L1Cache_Controller.MI.Ifetch |           1    100.00%    100.00% |           0      0.00%    100.00% |           0      0.00%    100.00% |           0      0.00%    100.00%
system.ruby.L1Cache_Controller.MI.Ifetch::total            1                      
system.ruby.L1Cache_Controller.MI.Store  |           6      2.40%      2.40% |           0      0.00%      2.40% |         244     97.60%    100.00% |           0      0.00%    100.00%
system.ruby.L1Cache_Controller.MI.Store::total          250                      
system.ruby.L1Cache_Controller.MI.Writeback_Ack |        9899      0.38%      0.38% |          21      0.00%      0.38% |     2603126     99.62%    100.00% |           6      0.00%    100.00%
system.ruby.L1Cache_Controller.MI.Writeback_Ack::total      2613052                      
system.ruby.L1Cache_Controller.ST.Complete_L2_to_L1 |       44313     32.61%     32.61% |       16362     12.04%     44.65% |       59803     44.01%     88.66% |       15405     11.34%    100.00%
system.ruby.L1Cache_Controller.ST.Complete_L2_to_L1::total       135883                      
system.ruby.L1Cache_Controller.OT.Complete_L2_to_L1 |        7795     23.45%     23.45% |        6291     18.92%     42.37% |       18192     54.72%     97.10% |         965      2.90%    100.00%
system.ruby.L1Cache_Controller.OT.Complete_L2_to_L1::total        33243                      
system.ruby.L1Cache_Controller.MT.Complete_L2_to_L1 |        6857      1.00%      1.00% |        2628      0.38%      1.39% |      672236     98.48%     99.87% |         898      0.13%    100.00%
system.ruby.L1Cache_Controller.MT.Complete_L2_to_L1::total       682619                      
system.ruby.L1Cache_Controller.MMT.Complete_L2_to_L1 |       68964      1.87%      1.87% |        5543      0.15%      2.02% |     3603249     97.91%     99.93% |        2583      0.07%    100.00%
system.ruby.L1Cache_Controller.MMT.Complete_L2_to_L1::total      3680339                      

---------- End Simulation Statistics   ----------
