
---------- Begin Simulation Statistics ----------
sim_seconds                                  3.867383                       # Number of seconds simulated
sim_ticks                                3867382556500                       # Number of ticks simulated
final_tick                               56064805390501                       # Number of ticks from beginning of simulation (restored from checkpoints and never reset)
sim_freq                                 1000000000000                       # Frequency of simulated ticks
host_inst_rate                                 158948                       # Simulator instruction rate (inst/s)
host_op_rate                                   222829                       # Simulator op (including micro ops) rate (op/s)
host_tick_rate                              273157892                       # Simulator tick rate (ticks/s)
host_mem_usage                                1843260                       # Number of bytes of host memory used
host_seconds                                 14158.05                       # Real time elapsed on the host
sim_insts                                  2250398645                       # Number of instructions simulated
sim_ops                                    3154823468                       # Number of ops (including micro ops) simulated
system.voltage_domain.voltage                       1                       # Voltage in Volts
system.clk_domain.clock                          1000                       # Clock period in ticks
system.mem_ctrls.bytes_read::ruby.dir_cntrl0     44262848                       # Number of bytes read from this memory
system.mem_ctrls.bytes_read::total           44262848                       # Number of bytes read from this memory
system.mem_ctrls.bytes_written::ruby.dir_cntrl0     30387008                       # Number of bytes written to this memory
system.mem_ctrls.bytes_written::total        30387008                       # Number of bytes written to this memory
system.mem_ctrls.num_reads::ruby.dir_cntrl0       691607                       # Number of read requests responded to by this memory
system.mem_ctrls.num_reads::total              691607                       # Number of read requests responded to by this memory
system.mem_ctrls.num_writes::ruby.dir_cntrl0       474797                       # Number of write requests responded to by this memory
system.mem_ctrls.num_writes::total             474797                       # Number of write requests responded to by this memory
system.mem_ctrls.bw_read::ruby.dir_cntrl0     11445169                       # Total read bandwidth from this memory (bytes/s)
system.mem_ctrls.bw_read::total              11445169                       # Total read bandwidth from this memory (bytes/s)
system.mem_ctrls.bw_write::ruby.dir_cntrl0      7857254                       # Write bandwidth from this memory (bytes/s)
system.mem_ctrls.bw_write::total              7857254                       # Write bandwidth from this memory (bytes/s)
system.mem_ctrls.bw_total::ruby.dir_cntrl0     19302424                       # Total bandwidth to/from this memory (bytes/s)
system.mem_ctrls.bw_total::total             19302424                       # Total bandwidth to/from this memory (bytes/s)
system.mem_ctrls.readReqs                      691607                       # Number of read requests accepted
system.mem_ctrls.writeReqs                     474797                       # Number of write requests accepted
system.mem_ctrls.readBursts                    691607                       # Number of DRAM read bursts, including those serviced by the write queue
system.mem_ctrls.writeBursts                   474797                       # Number of DRAM write bursts, including those merged in the write queue
system.mem_ctrls.bytesReadDRAM               44195328                       # Total number of bytes read from DRAM
system.mem_ctrls.bytesReadWrQ                   67520                       # Total number of bytes read from write queue
system.mem_ctrls.bytesWritten                30385600                       # Total number of bytes written to DRAM
system.mem_ctrls.bytesReadSys                44262848                       # Total read bytes from the system interface side
system.mem_ctrls.bytesWrittenSys             30387008                       # Total written bytes from the system interface side
system.mem_ctrls.servicedByWrQ                   1055                       # Number of DRAM read bursts serviced by the write queue
system.mem_ctrls.mergedWrBursts                     0                       # Number of DRAM write bursts merged with an existing one
system.mem_ctrls.neitherReadNorWriteReqs            0                       # Number of requests that are neither read nor write
system.mem_ctrls.perBankRdBursts::0             42911                       # Per bank write bursts
system.mem_ctrls.perBankRdBursts::1             45418                       # Per bank write bursts
system.mem_ctrls.perBankRdBursts::2             43295                       # Per bank write bursts
system.mem_ctrls.perBankRdBursts::3             39408                       # Per bank write bursts
system.mem_ctrls.perBankRdBursts::4             45258                       # Per bank write bursts
system.mem_ctrls.perBankRdBursts::5             42532                       # Per bank write bursts
system.mem_ctrls.perBankRdBursts::6             45038                       # Per bank write bursts
system.mem_ctrls.perBankRdBursts::7             47668                       # Per bank write bursts
system.mem_ctrls.perBankRdBursts::8             44292                       # Per bank write bursts
system.mem_ctrls.perBankRdBursts::9             42192                       # Per bank write bursts
system.mem_ctrls.perBankRdBursts::10            39892                       # Per bank write bursts
system.mem_ctrls.perBankRdBursts::11            37479                       # Per bank write bursts
system.mem_ctrls.perBankRdBursts::12            45830                       # Per bank write bursts
system.mem_ctrls.perBankRdBursts::13            44177                       # Per bank write bursts
system.mem_ctrls.perBankRdBursts::14            41778                       # Per bank write bursts
system.mem_ctrls.perBankRdBursts::15            43384                       # Per bank write bursts
system.mem_ctrls.perBankWrBursts::0             29226                       # Per bank write bursts
system.mem_ctrls.perBankWrBursts::1             31027                       # Per bank write bursts
system.mem_ctrls.perBankWrBursts::2             29721                       # Per bank write bursts
system.mem_ctrls.perBankWrBursts::3             26819                       # Per bank write bursts
system.mem_ctrls.perBankWrBursts::4             31307                       # Per bank write bursts
system.mem_ctrls.perBankWrBursts::5             29078                       # Per bank write bursts
system.mem_ctrls.perBankWrBursts::6             31279                       # Per bank write bursts
system.mem_ctrls.perBankWrBursts::7             32884                       # Per bank write bursts
system.mem_ctrls.perBankWrBursts::8             30336                       # Per bank write bursts
system.mem_ctrls.perBankWrBursts::9             28985                       # Per bank write bursts
system.mem_ctrls.perBankWrBursts::10            27518                       # Per bank write bursts
system.mem_ctrls.perBankWrBursts::11            26058                       # Per bank write bursts
system.mem_ctrls.perBankWrBursts::12            32068                       # Per bank write bursts
system.mem_ctrls.perBankWrBursts::13            30075                       # Per bank write bursts
system.mem_ctrls.perBankWrBursts::14            28792                       # Per bank write bursts
system.mem_ctrls.perBankWrBursts::15            29602                       # Per bank write bursts
system.mem_ctrls.numRdRetry                         0                       # Number of times read queue was full causing retry
system.mem_ctrls.numWrRetry                         0                       # Number of times write queue was full causing retry
system.mem_ctrls.totGap                  3867382497500                       # Total gap between requests
system.mem_ctrls.readPktSize::0                     0                       # Read request sizes (log2)
system.mem_ctrls.readPktSize::1                     0                       # Read request sizes (log2)
system.mem_ctrls.readPktSize::2                     0                       # Read request sizes (log2)
system.mem_ctrls.readPktSize::3                     0                       # Read request sizes (log2)
system.mem_ctrls.readPktSize::4                     0                       # Read request sizes (log2)
system.mem_ctrls.readPktSize::5                     0                       # Read request sizes (log2)
system.mem_ctrls.readPktSize::6                691607                       # Read request sizes (log2)
system.mem_ctrls.writePktSize::0                    0                       # Write request sizes (log2)
system.mem_ctrls.writePktSize::1                    0                       # Write request sizes (log2)
system.mem_ctrls.writePktSize::2                    0                       # Write request sizes (log2)
system.mem_ctrls.writePktSize::3                    0                       # Write request sizes (log2)
system.mem_ctrls.writePktSize::4                    0                       # Write request sizes (log2)
system.mem_ctrls.writePktSize::5                    0                       # Write request sizes (log2)
system.mem_ctrls.writePktSize::6               474797                       # Write request sizes (log2)
system.mem_ctrls.rdQLenPdf::0                  689035                       # What read queue length does an incoming req see
system.mem_ctrls.rdQLenPdf::1                    1512                       # What read queue length does an incoming req see
system.mem_ctrls.rdQLenPdf::2                       5                       # What read queue length does an incoming req see
system.mem_ctrls.rdQLenPdf::3                       0                       # What read queue length does an incoming req see
system.mem_ctrls.rdQLenPdf::4                       0                       # What read queue length does an incoming req see
system.mem_ctrls.rdQLenPdf::5                       0                       # What read queue length does an incoming req see
system.mem_ctrls.rdQLenPdf::6                       0                       # What read queue length does an incoming req see
system.mem_ctrls.rdQLenPdf::7                       0                       # What read queue length does an incoming req see
system.mem_ctrls.rdQLenPdf::8                       0                       # What read queue length does an incoming req see
system.mem_ctrls.rdQLenPdf::9                       0                       # What read queue length does an incoming req see
system.mem_ctrls.rdQLenPdf::10                      0                       # What read queue length does an incoming req see
system.mem_ctrls.rdQLenPdf::11                      0                       # What read queue length does an incoming req see
system.mem_ctrls.rdQLenPdf::12                      0                       # What read queue length does an incoming req see
system.mem_ctrls.rdQLenPdf::13                      0                       # What read queue length does an incoming req see
system.mem_ctrls.rdQLenPdf::14                      0                       # What read queue length does an incoming req see
system.mem_ctrls.rdQLenPdf::15                      0                       # What read queue length does an incoming req see
system.mem_ctrls.rdQLenPdf::16                      0                       # What read queue length does an incoming req see
system.mem_ctrls.rdQLenPdf::17                      0                       # What read queue length does an incoming req see
system.mem_ctrls.rdQLenPdf::18                      0                       # What read queue length does an incoming req see
system.mem_ctrls.rdQLenPdf::19                      0                       # What read queue length does an incoming req see
system.mem_ctrls.rdQLenPdf::20                      0                       # What read queue length does an incoming req see
system.mem_ctrls.rdQLenPdf::21                      0                       # What read queue length does an incoming req see
system.mem_ctrls.rdQLenPdf::22                      0                       # What read queue length does an incoming req see
system.mem_ctrls.rdQLenPdf::23                      0                       # What read queue length does an incoming req see
system.mem_ctrls.rdQLenPdf::24                      0                       # What read queue length does an incoming req see
system.mem_ctrls.rdQLenPdf::25                      0                       # What read queue length does an incoming req see
system.mem_ctrls.rdQLenPdf::26                      0                       # What read queue length does an incoming req see
system.mem_ctrls.rdQLenPdf::27                      0                       # What read queue length does an incoming req see
system.mem_ctrls.rdQLenPdf::28                      0                       # What read queue length does an incoming req see
system.mem_ctrls.rdQLenPdf::29                      0                       # What read queue length does an incoming req see
system.mem_ctrls.rdQLenPdf::30                      0                       # What read queue length does an incoming req see
system.mem_ctrls.rdQLenPdf::31                      0                       # What read queue length does an incoming req see
system.mem_ctrls.wrQLenPdf::0                       1                       # What write queue length does an incoming req see
system.mem_ctrls.wrQLenPdf::1                       1                       # What write queue length does an incoming req see
system.mem_ctrls.wrQLenPdf::2                       1                       # What write queue length does an incoming req see
system.mem_ctrls.wrQLenPdf::3                       1                       # What write queue length does an incoming req see
system.mem_ctrls.wrQLenPdf::4                       1                       # What write queue length does an incoming req see
system.mem_ctrls.wrQLenPdf::5                       1                       # What write queue length does an incoming req see
system.mem_ctrls.wrQLenPdf::6                       1                       # What write queue length does an incoming req see
system.mem_ctrls.wrQLenPdf::7                       1                       # What write queue length does an incoming req see
system.mem_ctrls.wrQLenPdf::8                       1                       # What write queue length does an incoming req see
system.mem_ctrls.wrQLenPdf::9                       1                       # What write queue length does an incoming req see
system.mem_ctrls.wrQLenPdf::10                      1                       # What write queue length does an incoming req see
system.mem_ctrls.wrQLenPdf::11                      1                       # What write queue length does an incoming req see
system.mem_ctrls.wrQLenPdf::12                      1                       # What write queue length does an incoming req see
system.mem_ctrls.wrQLenPdf::13                      1                       # What write queue length does an incoming req see
system.mem_ctrls.wrQLenPdf::14                      1                       # What write queue length does an incoming req see
system.mem_ctrls.wrQLenPdf::15                    665                       # What write queue length does an incoming req see
system.mem_ctrls.wrQLenPdf::16                    725                       # What write queue length does an incoming req see
system.mem_ctrls.wrQLenPdf::17                  29176                       # What write queue length does an incoming req see
system.mem_ctrls.wrQLenPdf::18                  29530                       # What write queue length does an incoming req see
system.mem_ctrls.wrQLenPdf::19                  29536                       # What write queue length does an incoming req see
system.mem_ctrls.wrQLenPdf::20                  29610                       # What write queue length does an incoming req see
system.mem_ctrls.wrQLenPdf::21                  29656                       # What write queue length does an incoming req see
system.mem_ctrls.wrQLenPdf::22                  29633                       # What write queue length does an incoming req see
system.mem_ctrls.wrQLenPdf::23                  29653                       # What write queue length does an incoming req see
system.mem_ctrls.wrQLenPdf::24                  29641                       # What write queue length does an incoming req see
system.mem_ctrls.wrQLenPdf::25                  29620                       # What write queue length does an incoming req see
system.mem_ctrls.wrQLenPdf::26                  29637                       # What write queue length does an incoming req see
system.mem_ctrls.wrQLenPdf::27                  29629                       # What write queue length does an incoming req see
system.mem_ctrls.wrQLenPdf::28                  29622                       # What write queue length does an incoming req see
system.mem_ctrls.wrQLenPdf::29                  29614                       # What write queue length does an incoming req see
system.mem_ctrls.wrQLenPdf::30                  29595                       # What write queue length does an incoming req see
system.mem_ctrls.wrQLenPdf::31                  29599                       # What write queue length does an incoming req see
system.mem_ctrls.wrQLenPdf::32                  29590                       # What write queue length does an incoming req see
system.mem_ctrls.wrQLenPdf::33                      9                       # What write queue length does an incoming req see
system.mem_ctrls.wrQLenPdf::34                      7                       # What write queue length does an incoming req see
system.mem_ctrls.wrQLenPdf::35                      5                       # What write queue length does an incoming req see
system.mem_ctrls.wrQLenPdf::36                      5                       # What write queue length does an incoming req see
system.mem_ctrls.wrQLenPdf::37                      3                       # What write queue length does an incoming req see
system.mem_ctrls.wrQLenPdf::38                      4                       # What write queue length does an incoming req see
system.mem_ctrls.wrQLenPdf::39                      4                       # What write queue length does an incoming req see
system.mem_ctrls.wrQLenPdf::40                      4                       # What write queue length does an incoming req see
system.mem_ctrls.wrQLenPdf::41                      4                       # What write queue length does an incoming req see
system.mem_ctrls.wrQLenPdf::42                      2                       # What write queue length does an incoming req see
system.mem_ctrls.wrQLenPdf::43                      3                       # What write queue length does an incoming req see
system.mem_ctrls.wrQLenPdf::44                      1                       # What write queue length does an incoming req see
system.mem_ctrls.wrQLenPdf::45                      0                       # What write queue length does an incoming req see
system.mem_ctrls.wrQLenPdf::46                      0                       # What write queue length does an incoming req see
system.mem_ctrls.wrQLenPdf::47                      0                       # What write queue length does an incoming req see
system.mem_ctrls.wrQLenPdf::48                      0                       # What write queue length does an incoming req see
system.mem_ctrls.wrQLenPdf::49                      0                       # What write queue length does an incoming req see
system.mem_ctrls.wrQLenPdf::50                      0                       # What write queue length does an incoming req see
system.mem_ctrls.wrQLenPdf::51                      0                       # What write queue length does an incoming req see
system.mem_ctrls.wrQLenPdf::52                      0                       # What write queue length does an incoming req see
system.mem_ctrls.wrQLenPdf::53                      0                       # What write queue length does an incoming req see
system.mem_ctrls.wrQLenPdf::54                      0                       # What write queue length does an incoming req see
system.mem_ctrls.wrQLenPdf::55                      0                       # What write queue length does an incoming req see
system.mem_ctrls.wrQLenPdf::56                      0                       # What write queue length does an incoming req see
system.mem_ctrls.wrQLenPdf::57                      0                       # What write queue length does an incoming req see
system.mem_ctrls.wrQLenPdf::58                      0                       # What write queue length does an incoming req see
system.mem_ctrls.wrQLenPdf::59                      0                       # What write queue length does an incoming req see
system.mem_ctrls.wrQLenPdf::60                      0                       # What write queue length does an incoming req see
system.mem_ctrls.wrQLenPdf::61                      0                       # What write queue length does an incoming req see
system.mem_ctrls.wrQLenPdf::62                      0                       # What write queue length does an incoming req see
system.mem_ctrls.wrQLenPdf::63                      0                       # What write queue length does an incoming req see
system.mem_ctrls.bytesPerActivate::samples       585748                       # Bytes accessed per row activation
system.mem_ctrls.bytesPerActivate::mean    127.325963                       # Bytes accessed per row activation
system.mem_ctrls.bytesPerActivate::gmean    91.902705                       # Bytes accessed per row activation
system.mem_ctrls.bytesPerActivate::stdev   163.747624                       # Bytes accessed per row activation
system.mem_ctrls.bytesPerActivate::0-127       409311     69.88%     69.88% # Bytes accessed per row activation
system.mem_ctrls.bytesPerActivate::128-255       115706     19.75%     89.63% # Bytes accessed per row activation
system.mem_ctrls.bytesPerActivate::256-383        24004      4.10%     93.73% # Bytes accessed per row activation
system.mem_ctrls.bytesPerActivate::384-511        11185      1.91%     95.64% # Bytes accessed per row activation
system.mem_ctrls.bytesPerActivate::512-639         6711      1.15%     96.79% # Bytes accessed per row activation
system.mem_ctrls.bytesPerActivate::640-767         4511      0.77%     97.56% # Bytes accessed per row activation
system.mem_ctrls.bytesPerActivate::768-895         2943      0.50%     98.06% # Bytes accessed per row activation
system.mem_ctrls.bytesPerActivate::896-1023         3053      0.52%     98.58% # Bytes accessed per row activation
system.mem_ctrls.bytesPerActivate::1024-1151         8324      1.42%    100.00% # Bytes accessed per row activation
system.mem_ctrls.bytesPerActivate::total       585748                       # Bytes accessed per row activation
system.mem_ctrls.rdPerTurnAround::samples        29581                       # Reads before turning the bus around for writes
system.mem_ctrls.rdPerTurnAround::mean      23.860823                       # Reads before turning the bus around for writes
system.mem_ctrls.rdPerTurnAround::gmean     21.220040                       # Reads before turning the bus around for writes
system.mem_ctrls.rdPerTurnAround::stdev    164.397766                       # Reads before turning the bus around for writes
system.mem_ctrls.rdPerTurnAround::0-1023        29572     99.97%     99.97% # Reads before turning the bus around for writes
system.mem_ctrls.rdPerTurnAround::1024-2047            4      0.01%     99.98% # Reads before turning the bus around for writes
system.mem_ctrls.rdPerTurnAround::2048-3071            2      0.01%     99.99% # Reads before turning the bus around for writes
system.mem_ctrls.rdPerTurnAround::3072-4095            1      0.00%     99.99% # Reads before turning the bus around for writes
system.mem_ctrls.rdPerTurnAround::4096-5119            1      0.00%    100.00% # Reads before turning the bus around for writes
system.mem_ctrls.rdPerTurnAround::26624-27647            1      0.00%    100.00% # Reads before turning the bus around for writes
system.mem_ctrls.rdPerTurnAround::total         29581                       # Reads before turning the bus around for writes
system.mem_ctrls.wrPerTurnAround::samples        29581                       # Writes before turning the bus around for reads
system.mem_ctrls.wrPerTurnAround::mean      16.049998                       # Writes before turning the bus around for reads
system.mem_ctrls.wrPerTurnAround::gmean     16.047087                       # Writes before turning the bus around for reads
system.mem_ctrls.wrPerTurnAround::stdev      0.319369                       # Writes before turning the bus around for reads
system.mem_ctrls.wrPerTurnAround::16            28831     97.46%     97.46% # Writes before turning the bus around for reads
system.mem_ctrls.wrPerTurnAround::17               52      0.18%     97.64% # Writes before turning the bus around for reads
system.mem_ctrls.wrPerTurnAround::18              686      2.32%     99.96% # Writes before turning the bus around for reads
system.mem_ctrls.wrPerTurnAround::19                5      0.02%     99.98% # Writes before turning the bus around for reads
system.mem_ctrls.wrPerTurnAround::20                3      0.01%     99.99% # Writes before turning the bus around for reads
system.mem_ctrls.wrPerTurnAround::22                2      0.01%     99.99% # Writes before turning the bus around for reads
system.mem_ctrls.wrPerTurnAround::23                1      0.00%    100.00% # Writes before turning the bus around for reads
system.mem_ctrls.wrPerTurnAround::25                1      0.00%    100.00% # Writes before turning the bus around for reads
system.mem_ctrls.wrPerTurnAround::total         29581                       # Writes before turning the bus around for reads
system.mem_ctrls.totQLat                  11264484201                       # Total ticks spent queuing
system.mem_ctrls.totMemAccLat             24212334201                       # Total ticks spent from burst creation until serviced by the DRAM
system.mem_ctrls.totBusLat                 3452760000                       # Total ticks spent in databus transfers
system.mem_ctrls.avgQLat                     16312.29                       # Average queueing delay per DRAM burst
system.mem_ctrls.avgBusLat                    5000.00                       # Average bus latency per DRAM burst
system.mem_ctrls.avgMemAccLat                35062.29                       # Average memory access latency per DRAM burst
system.mem_ctrls.avgRdBW                        11.43                       # Average DRAM read bandwidth in MiByte/s
system.mem_ctrls.avgWrBW                         7.86                       # Average achieved write bandwidth in MiByte/s
system.mem_ctrls.avgRdBWSys                     11.45                       # Average system read bandwidth in MiByte/s
system.mem_ctrls.avgWrBWSys                      7.86                       # Average system write bandwidth in MiByte/s
system.mem_ctrls.peakBW                      12800.00                       # Theoretical peak bandwidth in MiByte/s
system.mem_ctrls.busUtil                         0.15                       # Data bus utilization in percentage
system.mem_ctrls.busUtilRead                     0.09                       # Data bus utilization in percentage for reads
system.mem_ctrls.busUtilWrite                    0.06                       # Data bus utilization in percentage for writes
system.mem_ctrls.avgRdQLen                       1.00                       # Average read queue length when enqueuing
system.mem_ctrls.avgWrQLen                      25.42                       # Average write queue length when enqueuing
system.mem_ctrls.readRowHits                   400262                       # Number of row buffer hits during reads
system.mem_ctrls.writeRowHits                  179317                       # Number of row buffer hits during writes
system.mem_ctrls.readRowHitRate                 57.96                       # Row buffer hit rate for reads
system.mem_ctrls.writeRowHitRate                37.77                       # Row buffer hit rate for writes
system.mem_ctrls.avgGap                    3315645.78                       # Average gap between requests
system.mem_ctrls.pageHitRate                    49.73                       # Row buffer hit rate, read and write combined
system.mem_ctrls_0.actEnergy               2295208440                       # Energy for activate commands per rank (pJ)
system.mem_ctrls_0.preEnergy               1252345875                       # Energy for precharge commands per rank (pJ)
system.mem_ctrls_0.readEnergy              2802688200                       # Energy for read commands per rank (pJ)
system.mem_ctrls_0.writeEnergy             1563889680                       # Energy for write commands per rank (pJ)
system.mem_ctrls_0.refreshEnergy         252827044080                       # Energy for refresh commands per rank (pJ)
system.mem_ctrls_0.actBackEnergy         326658041595                       # Energy for active background per rank (pJ)
system.mem_ctrls_0.preBackEnergy         2035985824500                       # Energy for precharge background per rank (pJ)
system.mem_ctrls_0.totalEnergy           2623385042370                       # Total energy per rank (pJ)
system.mem_ctrls_0.averagePower            677.723174                       # Core power per rank (mW)
system.mem_ctrls_0.memoryStateTime::IDLE 3383967059502                       # Time in different power states
system.mem_ctrls_0.memoryStateTime::REF  129140440000                       # Time in different power states
system.mem_ctrls_0.memoryStateTime::PRE_PDN            0                       # Time in different power states
system.mem_ctrls_0.memoryStateTime::ACT  354275005998                       # Time in different power states
system.mem_ctrls_0.memoryStateTime::ACT_PDN            0                       # Time in different power states
system.mem_ctrls_1.actEnergy               2162333880                       # Energy for activate commands per rank (pJ)
system.mem_ctrls_1.preEnergy               1179844875                       # Energy for precharge commands per rank (pJ)
system.mem_ctrls_1.readEnergy              2702809200                       # Energy for read commands per rank (pJ)
system.mem_ctrls_1.writeEnergy             1512652320                       # Energy for write commands per rank (pJ)
system.mem_ctrls_1.refreshEnergy         252827044080                       # Energy for refresh commands per rank (pJ)
system.mem_ctrls_1.actBackEnergy         317208011310                       # Energy for active background per rank (pJ)
system.mem_ctrls_1.preBackEnergy         2044275324750                       # Energy for precharge background per rank (pJ)
system.mem_ctrls_1.totalEnergy           2621868020415                       # Total energy per rank (pJ)
system.mem_ctrls_1.averagePower            677.331268                       # Core power per rank (mW)
system.mem_ctrls_1.memoryStateTime::IDLE 3397765702751                       # Time in different power states
system.mem_ctrls_1.memoryStateTime::REF  129140440000                       # Time in different power states
system.mem_ctrls_1.memoryStateTime::PRE_PDN            0                       # Time in different power states
system.mem_ctrls_1.memoryStateTime::ACT  340477514749                       # Time in different power states
system.mem_ctrls_1.memoryStateTime::ACT_PDN            0                       # Time in different power states
system.cpu_voltage_domain.voltage                   1                       # Voltage in Volts
system.cpu_clk_domain.clock                       500                       # Clock period in ticks
system.cpu0.apic_clk_domain.clock                8000                       # Clock period in ticks
system.cpu0.numCycles                      7732767543                       # number of cpu cycles simulated
system.cpu0.numWorkItemsStarted                     0                       # number of work items this cpu started
system.cpu0.numWorkItemsCompleted                   0                       # number of work items this cpu completed
system.cpu0.kern.inst.arm                           0                       # number of arm instructions executed
system.cpu0.kern.inst.quiesce                       0                       # number of quiesce instructions executed
system.cpu0.committedInsts                    4081537                       # Number of instructions committed
system.cpu0.committedOps                      8594033                       # Number of ops (including micro ops) committed
system.cpu0.num_int_alu_accesses              8423115                       # Number of integer alu accesses
system.cpu0.num_fp_alu_accesses                  1814                       # Number of float alu accesses
system.cpu0.num_func_calls                     236662                       # number of times a function call or return occured
system.cpu0.num_conditional_control_insts       613467                       # number of instructions that are conditional controls
system.cpu0.num_int_insts                     8423115                       # number of integer instructions
system.cpu0.num_fp_insts                         1814                       # number of float instructions
system.cpu0.num_int_register_reads           17063489                       # number of times the integer registers were read
system.cpu0.num_int_register_writes           6941342                       # number of times the integer registers were written
system.cpu0.num_fp_register_reads                3048                       # number of times the floating registers were read
system.cpu0.num_fp_register_writes               1440                       # number of times the floating registers were written
system.cpu0.num_cc_register_reads             4879978                       # number of times the CC registers were read
system.cpu0.num_cc_register_writes            2683392                       # number of times the CC registers were written
system.cpu0.num_mem_refs                      1997446                       # number of memory refs
system.cpu0.num_load_insts                    1239490                       # Number of load instructions
system.cpu0.num_store_insts                    757956                       # Number of store instructions
system.cpu0.num_idle_cycles              7714170590.068663                       # Number of idle cycles
system.cpu0.num_busy_cycles              18596952.931337                       # Number of busy cycles
system.cpu0.not_idle_fraction                0.002405                       # Percentage of non-idle cycles
system.cpu0.idle_fraction                    0.997595                       # Percentage of idle cycles
system.cpu0.Branches                           920875                       # Number of branches fetched
system.cpu0.op_class::No_OpClass               126421      1.47%      1.47% # Class of executed instruction
system.cpu0.op_class::IntAlu                  6413149     74.62%     76.09% # Class of executed instruction
system.cpu0.op_class::IntMult                   14094      0.16%     76.26% # Class of executed instruction
system.cpu0.op_class::IntDiv                    41645      0.48%     76.74% # Class of executed instruction
system.cpu0.op_class::FloatAdd                   1368      0.02%     76.76% # Class of executed instruction
system.cpu0.op_class::FloatCmp                      0      0.00%     76.76% # Class of executed instruction
system.cpu0.op_class::FloatCvt                      0      0.00%     76.76% # Class of executed instruction
system.cpu0.op_class::FloatMult                     0      0.00%     76.76% # Class of executed instruction
system.cpu0.op_class::FloatDiv                      0      0.00%     76.76% # Class of executed instruction
system.cpu0.op_class::FloatSqrt                     0      0.00%     76.76% # Class of executed instruction
system.cpu0.op_class::SimdAdd                       0      0.00%     76.76% # Class of executed instruction
system.cpu0.op_class::SimdAddAcc                    0      0.00%     76.76% # Class of executed instruction
system.cpu0.op_class::SimdAlu                       0      0.00%     76.76% # Class of executed instruction
system.cpu0.op_class::SimdCmp                       0      0.00%     76.76% # Class of executed instruction
system.cpu0.op_class::SimdCvt                       0      0.00%     76.76% # Class of executed instruction
system.cpu0.op_class::SimdMisc                      0      0.00%     76.76% # Class of executed instruction
system.cpu0.op_class::SimdMult                      0      0.00%     76.76% # Class of executed instruction
system.cpu0.op_class::SimdMultAcc                   0      0.00%     76.76% # Class of executed instruction
system.cpu0.op_class::SimdShift                     0      0.00%     76.76% # Class of executed instruction
system.cpu0.op_class::SimdShiftAcc                  0      0.00%     76.76% # Class of executed instruction
system.cpu0.op_class::SimdSqrt                      0      0.00%     76.76% # Class of executed instruction
system.cpu0.op_class::SimdFloatAdd                  0      0.00%     76.76% # Class of executed instruction
system.cpu0.op_class::SimdFloatAlu                  0      0.00%     76.76% # Class of executed instruction
system.cpu0.op_class::SimdFloatCmp                  0      0.00%     76.76% # Class of executed instruction
system.cpu0.op_class::SimdFloatCvt                  0      0.00%     76.76% # Class of executed instruction
system.cpu0.op_class::SimdFloatDiv                  0      0.00%     76.76% # Class of executed instruction
system.cpu0.op_class::SimdFloatMisc                 0      0.00%     76.76% # Class of executed instruction
system.cpu0.op_class::SimdFloatMult                 0      0.00%     76.76% # Class of executed instruction
system.cpu0.op_class::SimdFloatMultAcc              0      0.00%     76.76% # Class of executed instruction
system.cpu0.op_class::SimdFloatSqrt                 0      0.00%     76.76% # Class of executed instruction
system.cpu0.op_class::MemRead                 1239490     14.42%     91.18% # Class of executed instruction
system.cpu0.op_class::MemWrite                 757956      8.82%    100.00% # Class of executed instruction
system.cpu0.op_class::IprAccess                     0      0.00%    100.00% # Class of executed instruction
system.cpu0.op_class::InstPrefetch                  0      0.00%    100.00% # Class of executed instruction
system.cpu0.op_class::total                   8594123                       # Class of executed instruction
system.cpu1.apic_clk_domain.clock                8000                       # Clock period in ticks
system.cpu1.numCycles                      7738046105                       # number of cpu cycles simulated
system.cpu1.numWorkItemsStarted                     0                       # number of work items this cpu started
system.cpu1.numWorkItemsCompleted                   0                       # number of work items this cpu completed
system.cpu1.kern.inst.arm                           0                       # number of arm instructions executed
system.cpu1.kern.inst.quiesce                       0                       # number of quiesce instructions executed
system.cpu1.committedInsts                    2745504                       # Number of instructions committed
system.cpu1.committedOps                      5897073                       # Number of ops (including micro ops) committed
system.cpu1.num_int_alu_accesses              5769771                       # Number of integer alu accesses
system.cpu1.num_fp_alu_accesses                   154                       # Number of float alu accesses
system.cpu1.num_func_calls                     163645                       # number of times a function call or return occured
system.cpu1.num_conditional_control_insts       410875                       # number of instructions that are conditional controls
system.cpu1.num_int_insts                     5769771                       # number of integer instructions
system.cpu1.num_fp_insts                          154                       # number of float instructions
system.cpu1.num_int_register_reads           11738109                       # number of times the integer registers were read
system.cpu1.num_int_register_writes           4781514                       # number of times the integer registers were written
system.cpu1.num_fp_register_reads                 258                       # number of times the floating registers were read
system.cpu1.num_fp_register_writes                126                       # number of times the floating registers were written
system.cpu1.num_cc_register_reads             3267578                       # number of times the CC registers were read
system.cpu1.num_cc_register_writes            1738470                       # number of times the CC registers were written
system.cpu1.num_mem_refs                      1418187                       # number of memory refs
system.cpu1.num_load_insts                     882086                       # Number of load instructions
system.cpu1.num_store_insts                    536101                       # Number of store instructions
system.cpu1.num_idle_cycles              7725638329.008050                       # Number of idle cycles
system.cpu1.num_busy_cycles              12407775.991950                       # Number of busy cycles
system.cpu1.not_idle_fraction                0.001603                       # Percentage of non-idle cycles
system.cpu1.idle_fraction                    0.998397                       # Percentage of idle cycles
system.cpu1.Branches                           627333                       # Number of branches fetched
system.cpu1.op_class::No_OpClass               106061      1.80%      1.80% # Class of executed instruction
system.cpu1.op_class::IntAlu                  4320716     73.27%     75.07% # Class of executed instruction
system.cpu1.op_class::IntMult                   14864      0.25%     75.32% # Class of executed instruction
system.cpu1.op_class::IntDiv                    37149      0.63%     75.95% # Class of executed instruction
system.cpu1.op_class::FloatAdd                    120      0.00%     75.95% # Class of executed instruction
system.cpu1.op_class::FloatCmp                      0      0.00%     75.95% # Class of executed instruction
system.cpu1.op_class::FloatCvt                      0      0.00%     75.95% # Class of executed instruction
system.cpu1.op_class::FloatMult                     0      0.00%     75.95% # Class of executed instruction
system.cpu1.op_class::FloatDiv                      0      0.00%     75.95% # Class of executed instruction
system.cpu1.op_class::FloatSqrt                     0      0.00%     75.95% # Class of executed instruction
system.cpu1.op_class::SimdAdd                       0      0.00%     75.95% # Class of executed instruction
system.cpu1.op_class::SimdAddAcc                    0      0.00%     75.95% # Class of executed instruction
system.cpu1.op_class::SimdAlu                       0      0.00%     75.95% # Class of executed instruction
system.cpu1.op_class::SimdCmp                       0      0.00%     75.95% # Class of executed instruction
system.cpu1.op_class::SimdCvt                       0      0.00%     75.95% # Class of executed instruction
system.cpu1.op_class::SimdMisc                      0      0.00%     75.95% # Class of executed instruction
system.cpu1.op_class::SimdMult                      0      0.00%     75.95% # Class of executed instruction
system.cpu1.op_class::SimdMultAcc                   0      0.00%     75.95% # Class of executed instruction
system.cpu1.op_class::SimdShift                     0      0.00%     75.95% # Class of executed instruction
system.cpu1.op_class::SimdShiftAcc                  0      0.00%     75.95% # Class of executed instruction
system.cpu1.op_class::SimdSqrt                      0      0.00%     75.95% # Class of executed instruction
system.cpu1.op_class::SimdFloatAdd                  0      0.00%     75.95% # Class of executed instruction
system.cpu1.op_class::SimdFloatAlu                  0      0.00%     75.95% # Class of executed instruction
system.cpu1.op_class::SimdFloatCmp                  0      0.00%     75.95% # Class of executed instruction
system.cpu1.op_class::SimdFloatCvt                  0      0.00%     75.95% # Class of executed instruction
system.cpu1.op_class::SimdFloatDiv                  0      0.00%     75.95% # Class of executed instruction
system.cpu1.op_class::SimdFloatMisc                 0      0.00%     75.95% # Class of executed instruction
system.cpu1.op_class::SimdFloatMult                 0      0.00%     75.95% # Class of executed instruction
system.cpu1.op_class::SimdFloatMultAcc              0      0.00%     75.95% # Class of executed instruction
system.cpu1.op_class::SimdFloatSqrt                 0      0.00%     75.95% # Class of executed instruction
system.cpu1.op_class::MemRead                  882086     14.96%     90.91% # Class of executed instruction
system.cpu1.op_class::MemWrite                 536101      9.09%    100.00% # Class of executed instruction
system.cpu1.op_class::IprAccess                     0      0.00%    100.00% # Class of executed instruction
system.cpu1.op_class::InstPrefetch                  0      0.00%    100.00% # Class of executed instruction
system.cpu1.op_class::total                   5897097                       # Class of executed instruction
system.cpu2.apic_clk_domain.clock                8000                       # Clock period in ticks
system.cpu2.numCycles                      7736653763                       # number of cpu cycles simulated
system.cpu2.numWorkItemsStarted                     0                       # number of work items this cpu started
system.cpu2.numWorkItemsCompleted                   0                       # number of work items this cpu completed
system.cpu2.kern.inst.arm                           0                       # number of arm instructions executed
system.cpu2.kern.inst.quiesce                       0                       # number of quiesce instructions executed
system.cpu2.committedInsts                 2239418916                       # Number of instructions committed
system.cpu2.committedOps                   3131800668                       # Number of ops (including micro ops) committed
system.cpu2.num_int_alu_accesses           1364846738                       # Number of integer alu accesses
system.cpu2.num_fp_alu_accesses            2127680264                       # Number of float alu accesses
system.cpu2.num_func_calls                    4831593                       # number of times a function call or return occured
system.cpu2.num_conditional_control_insts    125336201                       # number of instructions that are conditional controls
system.cpu2.num_int_insts                  1364846738                       # number of integer instructions
system.cpu2.num_fp_insts                   2127680264                       # number of float instructions
system.cpu2.num_int_register_reads         2745196818                       # number of times the integer registers were read
system.cpu2.num_int_register_writes         828353515                       # number of times the integer registers were written
system.cpu2.num_fp_register_reads          4601234004                       # number of times the floating registers were read
system.cpu2.num_fp_register_writes         2077617833                       # number of times the floating registers were written
system.cpu2.num_cc_register_reads           735851368                       # number of times the CC registers were read
system.cpu2.num_cc_register_writes          430108734                       # number of times the CC registers were written
system.cpu2.num_mem_refs                    408292548                       # number of memory refs
system.cpu2.num_load_insts                  353586372                       # Number of load instructions
system.cpu2.num_store_insts                  54706176                       # Number of store instructions
system.cpu2.num_idle_cycles              5061673.639429                       # Number of idle cycles
system.cpu2.num_busy_cycles              7731592089.360571                       # Number of busy cycles
system.cpu2.not_idle_fraction                0.999346                       # Percentage of non-idle cycles
system.cpu2.idle_fraction                    0.000654                       # Percentage of idle cycles
system.cpu2.Branches                        163295568                       # Number of branches fetched
system.cpu2.op_class::No_OpClass              2281437      0.07%      0.07% # Class of executed instruction
system.cpu2.op_class::IntAlu               1676561588     53.53%     53.61% # Class of executed instruction
system.cpu2.op_class::IntMult                   78795      0.00%     53.61% # Class of executed instruction
system.cpu2.op_class::IntDiv                    99310      0.00%     53.61% # Class of executed instruction
system.cpu2.op_class::FloatAdd             1044495651     33.35%     86.96% # Class of executed instruction
system.cpu2.op_class::FloatCmp                      0      0.00%     86.96% # Class of executed instruction
system.cpu2.op_class::FloatCvt                      0      0.00%     86.96% # Class of executed instruction
system.cpu2.op_class::FloatMult                     0      0.00%     86.96% # Class of executed instruction
system.cpu2.op_class::FloatDiv                      0      0.00%     86.96% # Class of executed instruction
system.cpu2.op_class::FloatSqrt                     0      0.00%     86.96% # Class of executed instruction
system.cpu2.op_class::SimdAdd                       0      0.00%     86.96% # Class of executed instruction
system.cpu2.op_class::SimdAddAcc                    0      0.00%     86.96% # Class of executed instruction
system.cpu2.op_class::SimdAlu                       0      0.00%     86.96% # Class of executed instruction
system.cpu2.op_class::SimdCmp                       0      0.00%     86.96% # Class of executed instruction
system.cpu2.op_class::SimdCvt                       0      0.00%     86.96% # Class of executed instruction
system.cpu2.op_class::SimdMisc                      0      0.00%     86.96% # Class of executed instruction
system.cpu2.op_class::SimdMult                      0      0.00%     86.96% # Class of executed instruction
system.cpu2.op_class::SimdMultAcc                   0      0.00%     86.96% # Class of executed instruction
system.cpu2.op_class::SimdShift                     0      0.00%     86.96% # Class of executed instruction
system.cpu2.op_class::SimdShiftAcc                  0      0.00%     86.96% # Class of executed instruction
system.cpu2.op_class::SimdSqrt                      0      0.00%     86.96% # Class of executed instruction
system.cpu2.op_class::SimdFloatAdd                  0      0.00%     86.96% # Class of executed instruction
system.cpu2.op_class::SimdFloatAlu                  0      0.00%     86.96% # Class of executed instruction
system.cpu2.op_class::SimdFloatCmp                  0      0.00%     86.96% # Class of executed instruction
system.cpu2.op_class::SimdFloatCvt                  0      0.00%     86.96% # Class of executed instruction
system.cpu2.op_class::SimdFloatDiv                  0      0.00%     86.96% # Class of executed instruction
system.cpu2.op_class::SimdFloatMisc                 0      0.00%     86.96% # Class of executed instruction
system.cpu2.op_class::SimdFloatMult                 0      0.00%     86.96% # Class of executed instruction
system.cpu2.op_class::SimdFloatMultAcc              0      0.00%     86.96% # Class of executed instruction
system.cpu2.op_class::SimdFloatSqrt                 0      0.00%     86.96% # Class of executed instruction
system.cpu2.op_class::MemRead               353586372     11.29%     98.25% # Class of executed instruction
system.cpu2.op_class::MemWrite               54706176      1.75%    100.00% # Class of executed instruction
system.cpu2.op_class::IprAccess                     0      0.00%    100.00% # Class of executed instruction
system.cpu2.op_class::InstPrefetch                  0      0.00%    100.00% # Class of executed instruction
system.cpu2.op_class::total                3131809329                       # Class of executed instruction
system.cpu3.apic_clk_domain.clock                8000                       # Clock period in ticks
system.cpu3.numCycles                      7732128824                       # number of cpu cycles simulated
system.cpu3.numWorkItemsStarted                     0                       # number of work items this cpu started
system.cpu3.numWorkItemsCompleted                   0                       # number of work items this cpu completed
system.cpu3.kern.inst.arm                           0                       # number of arm instructions executed
system.cpu3.kern.inst.quiesce                       0                       # number of quiesce instructions executed
system.cpu3.committedInsts                    2744001                       # Number of instructions committed
system.cpu3.committedOps                      5926036                       # Number of ops (including micro ops) committed
system.cpu3.num_int_alu_accesses              5794764                       # Number of integer alu accesses
system.cpu3.num_fp_alu_accesses                     0                       # Number of float alu accesses
system.cpu3.num_func_calls                     163396                       # number of times a function call or return occured
system.cpu3.num_conditional_control_insts       416561                       # number of instructions that are conditional controls
system.cpu3.num_int_insts                     5794764                       # number of integer instructions
system.cpu3.num_fp_insts                            0                       # number of float instructions
system.cpu3.num_int_register_reads           11780325                       # number of times the integer registers were read
system.cpu3.num_int_register_writes           4812445                       # number of times the integer registers were written
system.cpu3.num_fp_register_reads                   0                       # number of times the floating registers were read
system.cpu3.num_fp_register_writes                  0                       # number of times the floating registers were written
system.cpu3.num_cc_register_reads             3337768                       # number of times the CC registers were read
system.cpu3.num_cc_register_writes            1750405                       # number of times the CC registers were written
system.cpu3.num_mem_refs                      1409557                       # number of memory refs
system.cpu3.num_load_insts                     876249                       # Number of load instructions
system.cpu3.num_store_insts                    533308                       # Number of store instructions
system.cpu3.num_idle_cycles              7719742609.111491                       # Number of idle cycles
system.cpu3.num_busy_cycles              12386214.888509                       # Number of busy cycles
system.cpu3.not_idle_fraction                0.001602                       # Percentage of non-idle cycles
system.cpu3.idle_fraction                    0.998398                       # Percentage of idle cycles
system.cpu3.Branches                           633320                       # Number of branches fetched
system.cpu3.op_class::No_OpClass               112345      1.90%      1.90% # Class of executed instruction
system.cpu3.op_class::IntAlu                  4351572     73.43%     75.33% # Class of executed instruction
system.cpu3.op_class::IntMult                   11993      0.20%     75.53% # Class of executed instruction
system.cpu3.op_class::IntDiv                    40572      0.68%     76.21% # Class of executed instruction
system.cpu3.op_class::FloatAdd                      0      0.00%     76.21% # Class of executed instruction
system.cpu3.op_class::FloatCmp                      0      0.00%     76.21% # Class of executed instruction
system.cpu3.op_class::FloatCvt                      0      0.00%     76.21% # Class of executed instruction
system.cpu3.op_class::FloatMult                     0      0.00%     76.21% # Class of executed instruction
system.cpu3.op_class::FloatDiv                      0      0.00%     76.21% # Class of executed instruction
system.cpu3.op_class::FloatSqrt                     0      0.00%     76.21% # Class of executed instruction
system.cpu3.op_class::SimdAdd                       0      0.00%     76.21% # Class of executed instruction
system.cpu3.op_class::SimdAddAcc                    0      0.00%     76.21% # Class of executed instruction
system.cpu3.op_class::SimdAlu                       0      0.00%     76.21% # Class of executed instruction
system.cpu3.op_class::SimdCmp                       0      0.00%     76.21% # Class of executed instruction
system.cpu3.op_class::SimdCvt                       0      0.00%     76.21% # Class of executed instruction
system.cpu3.op_class::SimdMisc                      0      0.00%     76.21% # Class of executed instruction
system.cpu3.op_class::SimdMult                      0      0.00%     76.21% # Class of executed instruction
system.cpu3.op_class::SimdMultAcc                   0      0.00%     76.21% # Class of executed instruction
system.cpu3.op_class::SimdShift                     0      0.00%     76.21% # Class of executed instruction
system.cpu3.op_class::SimdShiftAcc                  0      0.00%     76.21% # Class of executed instruction
system.cpu3.op_class::SimdSqrt                      0      0.00%     76.21% # Class of executed instruction
system.cpu3.op_class::SimdFloatAdd                  0      0.00%     76.21% # Class of executed instruction
system.cpu3.op_class::SimdFloatAlu                  0      0.00%     76.21% # Class of executed instruction
system.cpu3.op_class::SimdFloatCmp                  0      0.00%     76.21% # Class of executed instruction
system.cpu3.op_class::SimdFloatCvt                  0      0.00%     76.21% # Class of executed instruction
system.cpu3.op_class::SimdFloatDiv                  0      0.00%     76.21% # Class of executed instruction
system.cpu3.op_class::SimdFloatMisc                 0      0.00%     76.21% # Class of executed instruction
system.cpu3.op_class::SimdFloatMult                 0      0.00%     76.21% # Class of executed instruction
system.cpu3.op_class::SimdFloatMultAcc              0      0.00%     76.21% # Class of executed instruction
system.cpu3.op_class::SimdFloatSqrt                 0      0.00%     76.21% # Class of executed instruction
system.cpu3.op_class::MemRead                  876249     14.79%     91.00% # Class of executed instruction
system.cpu3.op_class::MemWrite                 533308      9.00%    100.00% # Class of executed instruction
system.cpu3.op_class::IprAccess                     0      0.00%    100.00% # Class of executed instruction
system.cpu3.op_class::InstPrefetch                  0      0.00%    100.00% # Class of executed instruction
system.cpu3.op_class::total                   5926039                       # Class of executed instruction
system.iobus.trans_dist::ReadReq                  200                       # Transaction distribution
system.iobus.trans_dist::ReadResp                 200                       # Transaction distribution
system.iobus.trans_dist::WriteReq                4009                       # Transaction distribution
system.iobus.trans_dist::WriteResp               4009                       # Transaction distribution
system.iobus.trans_dist::MessageReq                19                       # Transaction distribution
system.iobus.trans_dist::MessageResp               19                       # Transaction distribution
system.iobus.pkt_count_system.pc.south_bridge.io_apic.int_master::system.ruby.l1_cntrl0.sequencer.pio-slave-port            6                       # Packet count per connected master and slave (bytes)
system.iobus.pkt_count_system.pc.south_bridge.io_apic.int_master::system.ruby.l1_cntrl1.sequencer.pio-slave-port            4                       # Packet count per connected master and slave (bytes)
system.iobus.pkt_count_system.pc.south_bridge.io_apic.int_master::system.ruby.l1_cntrl2.sequencer.pio-slave-port            4                       # Packet count per connected master and slave (bytes)
system.iobus.pkt_count_system.pc.south_bridge.io_apic.int_master::system.ruby.l1_cntrl3.sequencer.pio-slave-port            6                       # Packet count per connected master and slave (bytes)
system.iobus.pkt_count_system.pc.south_bridge.io_apic.int_master::total           20                       # Packet count per connected master and slave (bytes)
system.iobus.pkt_count_system.ruby.l1_cntrl0.sequencer.mem-master-port::system.pc.south_bridge.ide.pio           46                       # Packet count per connected master and slave (bytes)
system.iobus.pkt_count_system.ruby.l1_cntrl0.sequencer.mem-master-port::system.pc.south_bridge.io_apic.pio           16                       # Packet count per connected master and slave (bytes)
system.iobus.pkt_count_system.ruby.l1_cntrl0.sequencer.mem-master-port::system.ruby.l1_cntrl0.sequencer.pio-slave-port         1960                       # Packet count per connected master and slave (bytes)
system.iobus.pkt_count_system.ruby.l1_cntrl0.sequencer.mem-master-port::system.ruby.l1_cntrl1.sequencer.pio-slave-port            2                       # Packet count per connected master and slave (bytes)
system.iobus.pkt_count_system.ruby.l1_cntrl0.sequencer.mem-master-port::system.ruby.l1_cntrl2.sequencer.pio-slave-port            2                       # Packet count per connected master and slave (bytes)
system.iobus.pkt_count_system.ruby.l1_cntrl0.sequencer.mem-master-port::system.ruby.l1_cntrl3.sequencer.pio-slave-port            2                       # Packet count per connected master and slave (bytes)
system.iobus.pkt_count_system.ruby.l1_cntrl0.sequencer.mem-master-port::total         2028                       # Packet count per connected master and slave (bytes)
system.iobus.pkt_count_system.ruby.l1_cntrl1.sequencer.mem-master-port::system.pc.south_bridge.ide.pio           12                       # Packet count per connected master and slave (bytes)
system.iobus.pkt_count_system.ruby.l1_cntrl1.sequencer.mem-master-port::system.pc.south_bridge.io_apic.pio            6                       # Packet count per connected master and slave (bytes)
system.iobus.pkt_count_system.ruby.l1_cntrl1.sequencer.mem-master-port::system.pc.com_1.pio           22                       # Packet count per connected master and slave (bytes)
system.iobus.pkt_count_system.ruby.l1_cntrl1.sequencer.mem-master-port::system.ruby.l1_cntrl1.sequencer.pio-slave-port         1948                       # Packet count per connected master and slave (bytes)
system.iobus.pkt_count_system.ruby.l1_cntrl1.sequencer.mem-master-port::system.ruby.l1_cntrl2.sequencer.pio-slave-port            2                       # Packet count per connected master and slave (bytes)
system.iobus.pkt_count_system.ruby.l1_cntrl1.sequencer.mem-master-port::total         1990                       # Packet count per connected master and slave (bytes)
system.iobus.pkt_count_system.ruby.l1_cntrl2.sequencer.mem-master-port::system.pc.south_bridge.ide.pio           34                       # Packet count per connected master and slave (bytes)
system.iobus.pkt_count_system.ruby.l1_cntrl2.sequencer.mem-master-port::system.pc.south_bridge.io_apic.pio           14                       # Packet count per connected master and slave (bytes)
system.iobus.pkt_count_system.ruby.l1_cntrl2.sequencer.mem-master-port::system.pc.com_1.pio          174                       # Packet count per connected master and slave (bytes)
system.iobus.pkt_count_system.ruby.l1_cntrl2.sequencer.mem-master-port::system.ruby.l1_cntrl1.sequencer.pio-slave-port            2                       # Packet count per connected master and slave (bytes)
system.iobus.pkt_count_system.ruby.l1_cntrl2.sequencer.mem-master-port::system.ruby.l1_cntrl2.sequencer.pio-slave-port         1966                       # Packet count per connected master and slave (bytes)
system.iobus.pkt_count_system.ruby.l1_cntrl2.sequencer.mem-master-port::system.ruby.l1_cntrl3.sequencer.pio-slave-port            6                       # Packet count per connected master and slave (bytes)
system.iobus.pkt_count_system.ruby.l1_cntrl2.sequencer.mem-master-port::total         2196                       # Packet count per connected master and slave (bytes)
system.iobus.pkt_count_system.ruby.l1_cntrl3.sequencer.mem-master-port::system.pc.south_bridge.io_apic.pio           22                       # Packet count per connected master and slave (bytes)
system.iobus.pkt_count_system.ruby.l1_cntrl3.sequencer.mem-master-port::system.pc.com_1.pio          244                       # Packet count per connected master and slave (bytes)
system.iobus.pkt_count_system.ruby.l1_cntrl3.sequencer.mem-master-port::system.ruby.l1_cntrl0.sequencer.pio-slave-port            2                       # Packet count per connected master and slave (bytes)
system.iobus.pkt_count_system.ruby.l1_cntrl3.sequencer.mem-master-port::system.ruby.l1_cntrl3.sequencer.pio-slave-port         1954                       # Packet count per connected master and slave (bytes)
system.iobus.pkt_count_system.ruby.l1_cntrl3.sequencer.mem-master-port::total         2222                       # Packet count per connected master and slave (bytes)
system.iobus.pkt_count::total                    8456                       # Packet count per connected master and slave (bytes)
system.iobus.pkt_size_system.pc.south_bridge.io_apic.int_master::system.ruby.l1_cntrl0.sequencer.pio-slave-port           12                       # Cumulative packet size per connected master and slave (bytes)
system.iobus.pkt_size_system.pc.south_bridge.io_apic.int_master::system.ruby.l1_cntrl1.sequencer.pio-slave-port            8                       # Cumulative packet size per connected master and slave (bytes)
system.iobus.pkt_size_system.pc.south_bridge.io_apic.int_master::system.ruby.l1_cntrl2.sequencer.pio-slave-port            8                       # Cumulative packet size per connected master and slave (bytes)
system.iobus.pkt_size_system.pc.south_bridge.io_apic.int_master::system.ruby.l1_cntrl3.sequencer.pio-slave-port           12                       # Cumulative packet size per connected master and slave (bytes)
system.iobus.pkt_size_system.pc.south_bridge.io_apic.int_master::total           40                       # Cumulative packet size per connected master and slave (bytes)
system.iobus.pkt_size_system.ruby.l1_cntrl0.sequencer.mem-master-port::system.pc.south_bridge.ide.pio           26                       # Cumulative packet size per connected master and slave (bytes)
system.iobus.pkt_size_system.ruby.l1_cntrl0.sequencer.mem-master-port::system.pc.south_bridge.io_apic.pio           32                       # Cumulative packet size per connected master and slave (bytes)
system.iobus.pkt_size_system.ruby.l1_cntrl0.sequencer.mem-master-port::system.ruby.l1_cntrl0.sequencer.pio-slave-port         3920                       # Cumulative packet size per connected master and slave (bytes)
system.iobus.pkt_size_system.ruby.l1_cntrl0.sequencer.mem-master-port::system.ruby.l1_cntrl1.sequencer.pio-slave-port            4                       # Cumulative packet size per connected master and slave (bytes)
system.iobus.pkt_size_system.ruby.l1_cntrl0.sequencer.mem-master-port::system.ruby.l1_cntrl2.sequencer.pio-slave-port            4                       # Cumulative packet size per connected master and slave (bytes)
system.iobus.pkt_size_system.ruby.l1_cntrl0.sequencer.mem-master-port::system.ruby.l1_cntrl3.sequencer.pio-slave-port            4                       # Cumulative packet size per connected master and slave (bytes)
system.iobus.pkt_size_system.ruby.l1_cntrl0.sequencer.mem-master-port::total         3990                       # Cumulative packet size per connected master and slave (bytes)
system.iobus.pkt_size_system.ruby.l1_cntrl1.sequencer.mem-master-port::system.pc.south_bridge.ide.pio            6                       # Cumulative packet size per connected master and slave (bytes)
system.iobus.pkt_size_system.ruby.l1_cntrl1.sequencer.mem-master-port::system.pc.south_bridge.io_apic.pio           12                       # Cumulative packet size per connected master and slave (bytes)
system.iobus.pkt_size_system.ruby.l1_cntrl1.sequencer.mem-master-port::system.pc.com_1.pio           11                       # Cumulative packet size per connected master and slave (bytes)
system.iobus.pkt_size_system.ruby.l1_cntrl1.sequencer.mem-master-port::system.ruby.l1_cntrl1.sequencer.pio-slave-port         3896                       # Cumulative packet size per connected master and slave (bytes)
system.iobus.pkt_size_system.ruby.l1_cntrl1.sequencer.mem-master-port::system.ruby.l1_cntrl2.sequencer.pio-slave-port            4                       # Cumulative packet size per connected master and slave (bytes)
system.iobus.pkt_size_system.ruby.l1_cntrl1.sequencer.mem-master-port::total         3929                       # Cumulative packet size per connected master and slave (bytes)
system.iobus.pkt_size_system.ruby.l1_cntrl2.sequencer.mem-master-port::system.pc.south_bridge.ide.pio           20                       # Cumulative packet size per connected master and slave (bytes)
system.iobus.pkt_size_system.ruby.l1_cntrl2.sequencer.mem-master-port::system.pc.south_bridge.io_apic.pio           28                       # Cumulative packet size per connected master and slave (bytes)
system.iobus.pkt_size_system.ruby.l1_cntrl2.sequencer.mem-master-port::system.pc.com_1.pio           87                       # Cumulative packet size per connected master and slave (bytes)
system.iobus.pkt_size_system.ruby.l1_cntrl2.sequencer.mem-master-port::system.ruby.l1_cntrl1.sequencer.pio-slave-port            4                       # Cumulative packet size per connected master and slave (bytes)
system.iobus.pkt_size_system.ruby.l1_cntrl2.sequencer.mem-master-port::system.ruby.l1_cntrl2.sequencer.pio-slave-port         3932                       # Cumulative packet size per connected master and slave (bytes)
system.iobus.pkt_size_system.ruby.l1_cntrl2.sequencer.mem-master-port::system.ruby.l1_cntrl3.sequencer.pio-slave-port           12                       # Cumulative packet size per connected master and slave (bytes)
system.iobus.pkt_size_system.ruby.l1_cntrl2.sequencer.mem-master-port::total         4083                       # Cumulative packet size per connected master and slave (bytes)
system.iobus.pkt_size_system.ruby.l1_cntrl3.sequencer.mem-master-port::system.pc.south_bridge.io_apic.pio           44                       # Cumulative packet size per connected master and slave (bytes)
system.iobus.pkt_size_system.ruby.l1_cntrl3.sequencer.mem-master-port::system.pc.com_1.pio          122                       # Cumulative packet size per connected master and slave (bytes)
system.iobus.pkt_size_system.ruby.l1_cntrl3.sequencer.mem-master-port::system.ruby.l1_cntrl0.sequencer.pio-slave-port            4                       # Cumulative packet size per connected master and slave (bytes)
system.iobus.pkt_size_system.ruby.l1_cntrl3.sequencer.mem-master-port::system.ruby.l1_cntrl3.sequencer.pio-slave-port         3908                       # Cumulative packet size per connected master and slave (bytes)
system.iobus.pkt_size_system.ruby.l1_cntrl3.sequencer.mem-master-port::total         4078                       # Cumulative packet size per connected master and slave (bytes)
system.iobus.pkt_size::total                    16120                       # Cumulative packet size per connected master and slave (bytes)
system.iobus.reqLayer2.occupancy                82000                       # Layer occupancy (ticks)
system.iobus.reqLayer2.utilization                0.0                       # Layer utilization (%)
system.iobus.reqLayer8.occupancy                50495                       # Layer occupancy (ticks)
system.iobus.reqLayer8.utilization                0.0                       # Layer utilization (%)
system.iobus.reqLayer12.occupancy              280000                       # Layer occupancy (ticks)
system.iobus.reqLayer12.utilization               0.0                       # Layer utilization (%)
system.iobus.reqLayer17.occupancy             2406497                       # Layer occupancy (ticks)
system.iobus.reqLayer17.utilization               0.0                       # Layer utilization (%)
system.iobus.reqLayer18.occupancy             2401999                       # Layer occupancy (ticks)
system.iobus.reqLayer18.utilization               0.0                       # Layer utilization (%)
system.iobus.reqLayer19.occupancy             2709032                       # Layer occupancy (ticks)
system.iobus.reqLayer19.utilization               0.0                       # Layer utilization (%)
system.iobus.reqLayer20.occupancy             2403500                       # Layer occupancy (ticks)
system.iobus.reqLayer20.utilization               0.0                       # Layer utilization (%)
system.iobus.respLayer0.occupancy               15498                       # Layer occupancy (ticks)
system.iobus.respLayer0.utilization               0.0                       # Layer utilization (%)
system.iobus.respLayer2.occupancy             1519000                       # Layer occupancy (ticks)
system.iobus.respLayer2.utilization               0.0                       # Layer utilization (%)
system.iobus.respLayer4.occupancy             1496000                       # Layer occupancy (ticks)
system.iobus.respLayer4.utilization               0.0                       # Layer utilization (%)
system.iobus.respLayer6.occupancy             1666500                       # Layer occupancy (ticks)
system.iobus.respLayer6.utilization               0.0                       # Layer utilization (%)
system.iobus.respLayer8.occupancy             1694500                       # Layer occupancy (ticks)
system.iobus.respLayer8.utilization               0.0                       # Layer utilization (%)
system.pc.south_bridge.ide.disks.dma_read_full_pages            1                       # Number of full page size DMA reads (not PRD).
system.pc.south_bridge.ide.disks.dma_read_bytes         4096                       # Number of bytes transfered via DMA reads (not PRD).
system.pc.south_bridge.ide.disks.dma_read_txs            1                       # Number of DMA read transactions (not PRD).
system.pc.south_bridge.ide.disks.dma_write_full_pages           24                       # Number of full page size DMA writes.
system.pc.south_bridge.ide.disks.dma_write_bytes        98304                       # Number of bytes transfered via DMA writes.
system.pc.south_bridge.ide.disks.dma_write_txs           24                       # Number of DMA write transactions.
system.ruby.clk_domain.clock                      500                       # Clock period in ticks
system.ruby.delayHist::bucket_size                  4                       # delay histogram for all message
system.ruby.delayHist::max_bucket                  39                       # delay histogram for all message
system.ruby.delayHist::samples               21443122                       # delay histogram for all message
system.ruby.delayHist::mean                  0.447137                       # delay histogram for all message
system.ruby.delayHist::stdev                 1.835623                       # delay histogram for all message
system.ruby.delayHist                    |    20248545     94.43%     94.43% |        1346      0.01%     94.44% |     1192993      5.56%    100.00% |          75      0.00%    100.00% |         147      0.00%    100.00% |           3      0.00%    100.00% |          11      0.00%    100.00% |           1      0.00%    100.00% |           1      0.00%    100.00% |           0      0.00%    100.00% # delay histogram for all message
system.ruby.delayHist::total                 21443122                       # delay histogram for all message
system.ruby.outstanding_req_hist_seqr::bucket_size            1                      
system.ruby.outstanding_req_hist_seqr::max_bucket            9                      
system.ruby.outstanding_req_hist_seqr::samples   3805650321                      
system.ruby.outstanding_req_hist_seqr::mean     1.000000                      
system.ruby.outstanding_req_hist_seqr::gmean     1.000000                      
system.ruby.outstanding_req_hist_seqr::stdev     0.000230                      
system.ruby.outstanding_req_hist_seqr    |           0      0.00%      0.00% |  3805650119    100.00%    100.00% |         202      0.00%    100.00% |           0      0.00%    100.00% |           0      0.00%    100.00% |           0      0.00%    100.00% |           0      0.00%    100.00% |           0      0.00%    100.00% |           0      0.00%    100.00% |           0      0.00%    100.00%
system.ruby.outstanding_req_hist_seqr::total   3805650321                      
system.ruby.latency_hist_seqr::bucket_size          256                      
system.ruby.latency_hist_seqr::max_bucket         2559                      
system.ruby.latency_hist_seqr::samples     3805650321                      
system.ruby.latency_hist_seqr::mean          1.042278                      
system.ruby.latency_hist_seqr::gmean         1.003538                      
system.ruby.latency_hist_seqr::stdev         2.354623                      
system.ruby.latency_hist_seqr            |  3805608317    100.00%    100.00% |       30873      0.00%    100.00% |       10586      0.00%    100.00% |         316      0.00%    100.00% |         211      0.00%    100.00% |          16      0.00%    100.00% |           2      0.00%    100.00% |           0      0.00%    100.00% |           0      0.00%    100.00% |           0      0.00%    100.00%
system.ruby.latency_hist_seqr::total       3805650321                      
system.ruby.hit_latency_hist_seqr::bucket_size            1                      
system.ruby.hit_latency_hist_seqr::max_bucket            9                      
system.ruby.hit_latency_hist_seqr::samples   3801483077                      
system.ruby.hit_latency_hist_seqr::mean             1                      
[...]
system.ruby.DMA_Controller.ReadRequest   |          84    100.00%    100.00% |           0      0.00%    100.00%
system.ruby.DMA_Controller.ReadRequest::total           84                      
system.ruby.DMA_Controller.WriteRequest  |        1664    100.00%    100.00% |           0      0.00%    100.00%
system.ruby.DMA_Controller.WriteRequest::total         1664                      
system.ruby.DMA_Controller.Data          |          84    100.00%    100.00% |           0      0.00%    100.00%
system.ruby.DMA_Controller.Data::total             84                      
system.ruby.DMA_Controller.Ack           |        1664    100.00%    100.00% |           0      0.00%    100.00%
system.ruby.DMA_Controller.Ack::total            1664                      
system.ruby.DMA_Controller.READY.ReadRequest |          84    100.00%    100.00% |           0      0.00%    100.00%
system.ruby.DMA_Controller.READY.ReadRequest::total           84                      
system.ruby.DMA_Controller.READY.WriteRequest |        1664    100.00%    100.00% |           0      0.00%    100.00%
system.ruby.DMA_Controller.READY.WriteRequest::total         1664                      
system.ruby.DMA_Controller.BUSY_RD.Data  |          84    100.00%    100.00% |           0      0.00%    100.00%
system.ruby.DMA_Controller.BUSY_RD.Data::total           84                      
system.ruby.DMA_Controller.BUSY_WR.Ack   |        1664    100.00%    100.00% |           0      0.00%    100.00%
system.ruby.DMA_Controller.BUSY_WR.Ack::total         1664                      
system.ruby.L1Cache_Controller.Load      |     2175716      0.60%      0.60% |     1342990      0.37%      0.96% |   360303104     98.76%     99.73% |      997419      0.27%    100.00%
system.ruby.L1Cache_Controller.Load::total    364819229                      
system.ruby.L1Cache_Controller.Ifetch    |    11533600      0.00%      0.00% |     6350878      0.00%      0.00% |18446744072789565440    100.00%    100.00% |     4500576      0.00%    100.00%
system.ruby.L1Cache_Controller.Ifetch::total 18446744072811952128                      
system.ruby.L1Cache_Controller.Store     |     1649460      2.81%      2.81% |     1033587      1.76%      4.57% |    55341806     94.20%     98.76% |      727132      1.24%    100.00%
system.ruby.L1Cache_Controller.Store::total     58751985                      
system.ruby.L1Cache_Controller.Inv       |       24485     26.02%     26.02% |       24953     26.52%     52.53% |       20135     21.40%     73.93% |       24535     26.07%    100.00%
system.ruby.L1Cache_Controller.Inv::total        94108                      
system.ruby.L1Cache_Controller.L1_Replacement |      169042      3.94%      3.94% |       93546      2.18%      6.12% |     3962044     92.36%     98.48% |       65035      1.52%    100.00%
system.ruby.L1Cache_Controller.L1_Replacement::total      4289667                      
system.ruby.L1Cache_Controller.Fwd_GETX  |        1658     30.07%     30.07% |        1667     30.23%     60.30% |        1095     19.86%     80.16% |        1094     19.84%    100.00%
system.ruby.L1Cache_Controller.Fwd_GETX::total         5514                      
system.ruby.L1Cache_Controller.Fwd_GETS  |       10592     37.81%     37.81% |        6237     22.26%     60.08% |        4074     14.54%     74.62% |        7110     25.38%    100.00%
system.ruby.L1Cache_Controller.Fwd_GETS::total        28013                      
system.ruby.L1Cache_Controller.Data      |        1214     28.86%     28.86% |        1060     25.20%     54.07% |        1043     24.80%     78.86% |         889     21.14%    100.00%
system.ruby.L1Cache_Controller.Data::total         4206                      
system.ruby.L1Cache_Controller.Data_Exclusive |       42686      1.28%      1.28% |       15809      0.47%      1.75% |     3273279     97.91%     99.66% |       11532      0.34%    100.00%
system.ruby.L1Cache_Controller.Data_Exclusive::total      3343306                      
system.ruby.L1Cache_Controller.DataS_fromL1 |        7695     27.47%     27.47% |       10479     37.41%     64.88% |        2869     10.24%     75.12% |        6970     24.88%    100.00%
system.ruby.L1Cache_Controller.DataS_fromL1::total        28013                      
system.ruby.L1Cache_Controller.Data_all_Acks |      126129     13.24%     13.24% |       78940      8.28%     21.52% |      689191     72.33%     93.85% |       58616      6.15%    100.00%
system.ruby.L1Cache_Controller.Data_all_Acks::total       952876                      
system.ruby.L1Cache_Controller.Ack       |       23452     48.56%     48.56% |        8320     17.23%     65.79% |        9067     18.77%     84.56% |        7457     15.44%    100.00%
system.ruby.L1Cache_Controller.Ack::total        48296                      
system.ruby.L1Cache_Controller.Ack_all   |       11010     42.68%     42.68% |        5547     21.50%     64.18% |        4485     17.39%     81.57% |        4754     18.43%    100.00%
system.ruby.L1Cache_Controller.Ack_all::total        25796                      
system.ruby.L1Cache_Controller.WB_Ack    |       59995      1.53%      1.53% |       24026      0.61%      2.14% |     3828051     97.55%     99.69% |       12220      0.31%    100.00%
system.ruby.L1Cache_Controller.WB_Ack::total      3924292                      
system.ruby.L1Cache_Controller.NP.Load   |       60329      1.76%      1.76% |       30411      0.89%      2.65% |     3308462     96.67%     99.33% |       23094      0.67%    100.00%
system.ruby.L1Cache_Controller.NP.Load::total      3422296                      
system.ruby.L1Cache_Controller.NP.Ifetch |       87642     32.35%     32.35% |       50401     18.60%     50.95% |       97128     35.85%     86.79% |       35784     13.21%    100.00%
system.ruby.L1Cache_Controller.NP.Ifetch::total       270955                      
system.ruby.L1Cache_Controller.NP.Store  |       21071      3.53%      3.53% |       13260      2.22%      5.75% |      556454     93.19%     98.94% |        6353      1.06%    100.00%
system.ruby.L1Cache_Controller.NP.Store::total       597138                      
system.ruby.L1Cache_Controller.NP.Inv    |        8556     28.64%     28.64% |        5345     17.89%     46.53% |       10965     36.70%     83.23% |        5009     16.77%    100.00%
system.ruby.L1Cache_Controller.NP.Inv::total        29875                      
system.ruby.L1Cache_Controller.I.Load    |        4030     17.84%     17.84% |        8427     37.30%     55.14% |        1472      6.52%     61.65% |        8663     38.35%    100.00%
system.ruby.L1Cache_Controller.I.Load::total        22592                      
system.ruby.L1Cache_Controller.I.Ifetch  |        2609     27.44%     27.44% |        2210     23.24%     50.68% |        2377     25.00%     75.68% |        2313     24.32%    100.00%
system.ruby.L1Cache_Controller.I.Ifetch::total         9509                      
system.ruby.L1Cache_Controller.I.Store   |        2042     34.57%     34.57% |        1577     26.70%     61.27% |         488      8.26%     69.53% |        1800     30.47%    100.00%
system.ruby.L1Cache_Controller.I.Store::total         5907                      
system.ruby.L1Cache_Controller.I.L1_Replacement |        8560     27.17%     27.17% |        8851     28.10%     55.27% |        6183     19.63%     74.90% |        7906     25.10%    100.00%
system.ruby.L1Cache_Controller.I.L1_Replacement::total        31500                      
system.ruby.L1Cache_Controller.S.Load    |      286325     31.30%     31.30% |      244965     26.78%     58.09% |      173488     18.97%     77.06% |      209864     22.94%    100.00%
system.ruby.L1Cache_Controller.S.Load::total       914642                      
system.ruby.L1Cache_Controller.S.Ifetch  |    11443349      0.00%      0.00% |     6298267      0.00%      0.00% |18446744072789465088    100.00%    100.00% |     4462479      0.00%    100.00%
system.ruby.L1Cache_Controller.S.Ifetch::total 18446744072811669504                      
system.ruby.L1Cache_Controller.S.Store   |        9797     45.37%     45.37% |        4489     20.79%     66.16% |        3443     15.94%     82.10% |        3865     17.90%    100.00%
system.ruby.L1Cache_Controller.S.Store::total        21594                      
system.ruby.L1Cache_Controller.S.Inv     |       12231     22.44%     22.44% |       16552     30.37%     52.80% |        9098     16.69%     69.49% |       16628     30.51%    100.00%
system.ruby.L1Cache_Controller.S.Inv::total        54509                      
system.ruby.L1Cache_Controller.S.L1_Replacement |      100487     30.10%     30.10% |       60669     18.17%     48.27% |      127810     38.28%     86.55% |       44909     13.45%    100.00%
system.ruby.L1Cache_Controller.S.L1_Replacement::total       333875                      
system.ruby.L1Cache_Controller.E.Load    |      362652      0.21%      0.21% |      174102      0.10%      0.32% |   169616289     99.61%     99.93% |      121149      0.07%    100.00%
system.ruby.L1Cache_Controller.E.Load::total    170274192                      
system.ruby.L1Cache_Controller.E.Store   |       18548      2.94%      2.94% |        4058      0.64%      3.58% |      606769     96.15%     99.73% |        1703      0.27%    100.00%
system.ruby.L1Cache_Controller.E.Store::total       631078                      
system.ruby.L1Cache_Controller.E.Inv     |        1318     40.23%     40.23% |         978     29.85%     70.09% |          38      1.16%     71.25% |         942     28.75%    100.00%
system.ruby.L1Cache_Controller.E.Inv::total         3276                      
system.ruby.L1Cache_Controller.E.L1_Replacement |       20185      0.75%      0.75% |        7196      0.27%      1.02% |     2665240     98.81%     99.83% |        4604      0.17%    100.00%
system.ruby.L1Cache_Controller.E.L1_Replacement::total      2697225                      
system.ruby.L1Cache_Controller.E.Fwd_GETX |         535     42.16%     42.16% |         582     45.86%     88.02% |         109      8.59%     96.61% |          43      3.39%    100.00%
system.ruby.L1Cache_Controller.E.Fwd_GETX::total         1269                      
system.ruby.L1Cache_Controller.E.Fwd_GETS |        2567     24.96%     24.96% |        2888     28.09%     53.05% |         721      7.01%     60.06% |        4107     39.94%    100.00%
system.ruby.L1Cache_Controller.E.Fwd_GETS::total        10283                      
system.ruby.L1Cache_Controller.M.Load    |     1462380      0.77%      0.77% |      885085      0.47%      1.23% |   187203393     98.43%     99.67% |      634649      0.33%    100.00%
system.ruby.L1Cache_Controller.M.Load::total    190185507                      
system.ruby.L1Cache_Controller.M.Store   |     1598002      2.78%      2.78% |     1010203      1.76%      4.54% |    54174652     94.22%     98.76% |      713411      1.24%    100.00%
system.ruby.L1Cache_Controller.M.Store::total     57496268                      
system.ruby.L1Cache_Controller.M.Inv     |        2379     36.92%     36.92% |        2076     32.22%     69.13% |          33      0.51%     69.65% |        1956     30.35%    100.00%
system.ruby.L1Cache_Controller.M.Inv::total         6444                      
system.ruby.L1Cache_Controller.M.L1_Replacement |       39810      3.24%      3.24% |       16830      1.37%      4.62% |     1162811     94.76%     99.38% |        7616      0.62%    100.00%
system.ruby.L1Cache_Controller.M.L1_Replacement::total      1227067                      
system.ruby.L1Cache_Controller.M.Fwd_GETX |        1123     26.45%     26.45% |        1085     25.56%     52.01% |         986     23.23%     75.24% |        1051     24.76%    100.00%
system.ruby.L1Cache_Controller.M.Fwd_GETX::total         4245                      
system.ruby.L1Cache_Controller.M.Fwd_GETS |        8025     45.26%     45.26% |        3349     18.89%     64.15% |        3353     18.91%     83.06% |        3003     16.94%    100.00%
system.ruby.L1Cache_Controller.M.Fwd_GETS::total        17730                      
system.ruby.L1Cache_Controller.IS.Data_Exclusive |       42686      1.28%      1.28% |       15809      0.47%      1.75% |     3273279     97.91%     99.66% |       11532      0.34%    100.00%
system.ruby.L1Cache_Controller.IS.Data_Exclusive::total      3343306                      
system.ruby.L1Cache_Controller.IS.DataS_fromL1 |        7695     27.47%     27.47% |       10479     37.41%     64.88% |        2869     10.24%     75.12% |        6970     24.88%    100.00%
system.ruby.L1Cache_Controller.IS.DataS_fromL1::total        28013                      
system.ruby.L1Cache_Controller.IS.Data_all_Acks |      104229     29.44%     29.44% |       65161     18.41%     47.85% |      133291     37.65%     85.50% |       51352     14.50%    100.00%
system.ruby.L1Cache_Controller.IS.Data_all_Acks::total       354033                      
system.ruby.L1Cache_Controller.IM.Data   |        1214     28.86%     28.86% |        1060     25.20%     54.07% |        1043     24.80%     78.86% |         889     21.14%    100.00%
system.ruby.L1Cache_Controller.IM.Data::total         4206                      
system.ruby.L1Cache_Controller.IM.Data_all_Acks |       21900      3.66%      3.66% |       13779      2.30%      5.96% |      555900     92.83%     98.79% |        7264      1.21%    100.00%
system.ruby.L1Cache_Controller.IM.Data_all_Acks::total       598843                      
system.ruby.L1Cache_Controller.SM.Inv    |           1     25.00%     25.00% |           2     50.00%     75.00% |           1     25.00%    100.00% |           0      0.00%    100.00%
system.ruby.L1Cache_Controller.SM.Inv::total            4                      
system.ruby.L1Cache_Controller.SM.Ack    |       23452     48.56%     48.56% |        8320     17.23%     65.79% |        9067     18.77%     84.56% |        7457     15.44%    100.00%
system.ruby.L1Cache_Controller.SM.Ack::total        48296                      
system.ruby.L1Cache_Controller.SM.Ack_all |       11010     42.68%     42.68% |        5547     21.50%     64.18% |        4485     17.39%     81.57% |        4754     18.43%    100.00%
system.ruby.L1Cache_Controller.SM.Ack_all::total        25796                      
system.ruby.L1Cache_Controller.M_I.WB_Ack |       59995      1.53%      1.53% |       24026      0.61%      2.14% |     3828051     97.55%     99.69% |       12220      0.31%    100.00%
system.ruby.L1Cache_Controller.M_I.WB_Ack::total      3924292                      
system.ruby.L2Cache_Controller.L1_GET_INSTR       280465      0.00%      0.00%
system.ruby.L2Cache_Controller.L1_GETS        3445300      0.00%      0.00%
system.ruby.L2Cache_Controller.L1_GETX         603053      0.00%      0.00%
system.ruby.L2Cache_Controller.L1_UPGRADE        21594      0.00%      0.00%
system.ruby.L2Cache_Controller.L1_PUTX        3924292      0.00%      0.00%
system.ruby.L2Cache_Controller.L2_Replacement       490632      0.00%      0.00%
system.ruby.L2Cache_Controller.L2_Replacement_clean       181372      0.00%      0.00%
system.ruby.L2Cache_Controller.Mem_Data        722376      0.00%      0.00%
system.ruby.L2Cache_Controller.Mem_Ack         672124      0.00%      0.00%
system.ruby.L2Cache_Controller.WB_Data          24174      0.00%      0.00%
system.ruby.L2Cache_Controller.WB_Data_clean        10283      0.00%      0.00%
system.ruby.L2Cache_Controller.Ack              15723      0.00%      0.00%
system.ruby.L2Cache_Controller.Ack_all          19439      0.00%      0.00%
system.ruby.L2Cache_Controller.Unblock          28013      0.00%      0.00%
system.ruby.L2Cache_Controller.Exclusive_Unblock      3967945      0.00%      0.00%
system.ruby.L2Cache_Controller.MEM_Inv            240      0.00%      0.00%
system.ruby.L2Cache_Controller.NP.L1_GET_INSTR        18273      0.00%      0.00%
system.ruby.L2Cache_Controller.NP.L1_GETS       411986      0.00%      0.00%
system.ruby.L2Cache_Controller.NP.L1_GETX       292117      0.00%      0.00%
system.ruby.L2Cache_Controller.SS.L1_GET_INSTR       262179      0.00%      0.00%
system.ruby.L2Cache_Controller.SS.L1_GETS        73507      0.00%      0.00%
system.ruby.L2Cache_Controller.SS.L1_GETX         4206      0.00%      0.00%
system.ruby.L2Cache_Controller.SS.L1_UPGRADE        21590      0.00%      0.00%
system.ruby.L2Cache_Controller.SS.L2_Replacement          366      0.00%      0.00%
system.ruby.L2Cache_Controller.SS.L2_Replacement_clean        15797      0.00%      0.00%
system.ruby.L2Cache_Controller.M.L1_GET_INSTR           12      0.00%      0.00%
system.ruby.L2Cache_Controller.M.L1_GETS      2931351      0.00%      0.00%
system.ruby.L2Cache_Controller.M.L1_GETX       301212      0.00%      0.00%
system.ruby.L2Cache_Controller.M.L2_Replacement       489160      0.00%      0.00%
system.ruby.L2Cache_Controller.M.L2_Replacement_clean       156968      0.00%      0.00%
system.ruby.L2Cache_Controller.M.MEM_Inv          113      0.00%      0.00%
system.ruby.L2Cache_Controller.MT.L1_GETS        28013      0.00%      0.00%
system.ruby.L2Cache_Controller.MT.L1_GETX         5514      0.00%      0.00%
system.ruby.L2Cache_Controller.MT.L1_PUTX      3924292      0.00%      0.00%
system.ruby.L2Cache_Controller.MT.L2_Replacement         1106      0.00%      0.00%
system.ruby.L2Cache_Controller.MT.L2_Replacement_clean         8607      0.00%      0.00%
system.ruby.L2Cache_Controller.MT.MEM_Inv            7      0.00%      0.00%
system.ruby.L2Cache_Controller.M_I.L1_GET_INSTR            1      0.00%      0.00%
system.ruby.L2Cache_Controller.M_I.Mem_Ack       672124      0.00%      0.00%
system.ruby.L2Cache_Controller.M_I.MEM_Inv          113      0.00%      0.00%
system.ruby.L2Cache_Controller.MT_I.WB_Data          959      0.00%      0.00%
system.ruby.L2Cache_Controller.MT_I.Ack_all          154      0.00%      0.00%
system.ruby.L2Cache_Controller.MT_I.MEM_Inv            7      0.00%      0.00%
system.ruby.L2Cache_Controller.MCT_I.WB_Data         5485      0.00%      0.00%
system.ruby.L2Cache_Controller.MCT_I.Ack_all         3122      0.00%      0.00%
system.ruby.L2Cache_Controller.I_I.Ack          15213      0.00%      0.00%
system.ruby.L2Cache_Controller.I_I.Ack_all        15797      0.00%      0.00%
system.ruby.L2Cache_Controller.S_I.Ack            510      0.00%      0.00%
system.ruby.L2Cache_Controller.S_I.Ack_all          366      0.00%      0.00%
system.ruby.L2Cache_Controller.ISS.L1_GETS           31      0.00%      0.00%
system.ruby.L2Cache_Controller.ISS.Mem_Data       411955      0.00%      0.00%
system.ruby.L2Cache_Controller.IS.Mem_Data        18304      0.00%      0.00%
system.ruby.L2Cache_Controller.IM.Mem_Data       292117      0.00%      0.00%
system.ruby.L2Cache_Controller.SS_MB.L1_GETS           54      0.00%      0.00%
system.ruby.L2Cache_Controller.SS_MB.L1_GETX            2      0.00%      0.00%
system.ruby.L2Cache_Controller.SS_MB.L1_UPGRADE            4      0.00%      0.00%
system.ruby.L2Cache_Controller.SS_MB.Exclusive_Unblock        25796      0.00%      0.00%
system.ruby.L2Cache_Controller.MT_MB.L1_GETS          356      0.00%      0.00%
system.ruby.L2Cache_Controller.MT_MB.L1_GETX            2      0.00%      0.00%
system.ruby.L2Cache_Controller.MT_MB.Exclusive_Unblock      3942149      0.00%      0.00%
system.ruby.L2Cache_Controller.MT_IIB.L1_GETS            2      0.00%      0.00%
system.ruby.L2Cache_Controller.MT_IIB.WB_Data        17721      0.00%      0.00%
system.ruby.L2Cache_Controller.MT_IIB.WB_Data_clean        10276      0.00%      0.00%
system.ruby.L2Cache_Controller.MT_IIB.Unblock           16      0.00%      0.00%
system.ruby.L2Cache_Controller.MT_IB.WB_Data            9      0.00%      0.00%
system.ruby.L2Cache_Controller.MT_IB.WB_Data_clean            7      0.00%      0.00%
system.ruby.L2Cache_Controller.MT_SB.Unblock        27997      0.00%      0.00%

---------- End Simulation Statistics   ----------
