
---------- Begin Simulation Statistics ----------
sim_seconds                                  3.931956                       # Number of seconds simulated
sim_ticks                                3931956155000                       # Number of ticks simulated
final_tick                               55157182949501                       # Number of ticks from beginning of simulation (restored from checkpoints and never reset)
sim_freq                                 1000000000000                       # Frequency of simulated ticks
host_inst_rate                                 152498                       # Simulator instruction rate (inst/s)
host_op_rate                                   213798                       # Simulator op (including micro ops) rate (op/s)
host_tick_rate                              266419712                       # Simulator tick rate (ticks/s)
host_mem_usage                                1932116                       # Number of bytes of host memory used
host_seconds                                 14758.50                       # Real time elapsed on the host
sim_insts                                  2250639995                       # Number of instructions simulated
sim_ops                                    3155339655                       # Number of ops (including micro ops) simulated
system.voltage_domain.voltage                       1                       # Voltage in Volts
system.clk_domain.clock                          1000                       # Clock period in ticks
system.mem_ctrls.bytes_read::ruby.dir_cntrl0    117908992                       # Number of bytes read from this memory
system.mem_ctrls.bytes_read::total          117908992                       # Number of bytes read from this memory
system.mem_ctrls.bytes_written::ruby.dir_cntrl0     49807424                       # Number of bytes written to this memory
system.mem_ctrls.bytes_written::total        49807424                       # Number of bytes written to this memory
system.mem_ctrls.num_reads::ruby.dir_cntrl0      1842328                       # Number of read requests responded to by this memory
system.mem_ctrls.num_reads::total             1842328                       # Number of read requests responded to by this memory
system.mem_ctrls.num_writes::ruby.dir_cntrl0       778241                       # Number of write requests responded to by this memory
system.mem_ctrls.num_writes::total             778241                       # Number of write requests responded to by this memory
system.mem_ctrls.bw_read::ruby.dir_cntrl0     29987362                       # Total read bandwidth from this memory (bytes/s)
system.mem_ctrls.bw_read::total              29987362                       # Total read bandwidth from this memory (bytes/s)
system.mem_ctrls.bw_write::ruby.dir_cntrl0     12667340                       # Write bandwidth from this memory (bytes/s)
system.mem_ctrls.bw_write::total             12667340                       # Write bandwidth from this memory (bytes/s)
system.mem_ctrls.bw_total::ruby.dir_cntrl0     42654701                       # Total bandwidth to/from this memory (bytes/s)
system.mem_ctrls.bw_total::total             42654701                       # Total bandwidth to/from this memory (bytes/s)
system.mem_ctrls.readReqs                     1842328                       # Number of read requests accepted
system.mem_ctrls.writeReqs                     778241                       # Number of write requests accepted
system.mem_ctrls.readBursts                   1842328                       # Number of DRAM read bursts, including those serviced by the write queue
system.mem_ctrls.writeBursts                   778241                       # Number of DRAM write bursts, including those merged in the write queue
system.mem_ctrls.bytesReadDRAM              117861120                       # Total number of bytes read from DRAM
system.mem_ctrls.bytesReadWrQ                   47872                       # Total number of bytes read from write queue
system.mem_ctrls.bytesWritten                49806592                       # Total number of bytes written to DRAM
system.mem_ctrls.bytesReadSys               117908992                       # Total read bytes from the system interface side
system.mem_ctrls.bytesWrittenSys             49807424                       # Total written bytes from the system interface side
system.mem_ctrls.servicedByWrQ                    748                       # Number of DRAM read bursts serviced by the write queue
system.mem_ctrls.mergedWrBursts                     0                       # Number of DRAM write bursts merged with an existing one
system.mem_ctrls.neitherReadNorWriteReqs            0                       # Number of requests that are neither read nor write
system.mem_ctrls.perBankRdBursts::0            116942                       # Per bank write bursts
system.mem_ctrls.perBankRdBursts::1            114401                       # Per bank write bursts
system.mem_ctrls.perBankRdBursts::2            121248                       # Per bank write bursts
system.mem_ctrls.perBankRdBursts::3            111964                       # Per bank write bursts
system.mem_ctrls.perBankRdBursts::4            108508                       # Per bank write bursts
system.mem_ctrls.perBankRdBursts::5            115912                       # Per bank write bursts
system.mem_ctrls.perBankRdBursts::6            118525                       # Per bank write bursts
system.mem_ctrls.perBankRdBursts::7            122248                       # Per bank write bursts
system.mem_ctrls.perBankRdBursts::8            123369                       # Per bank write bursts
system.mem_ctrls.perBankRdBursts::9            121886                       # Per bank write bursts
system.mem_ctrls.perBankRdBursts::10           118847                       # Per bank write bursts
system.mem_ctrls.perBankRdBursts::11           109064                       # Per bank write bursts
system.mem_ctrls.perBankRdBursts::12           108263                       # Per bank write bursts
system.mem_ctrls.perBankRdBursts::13           106082                       # Per bank write bursts
system.mem_ctrls.perBankRdBursts::14           108706                       # Per bank write bursts
system.mem_ctrls.perBankRdBursts::15           115615                       # Per bank write bursts
system.mem_ctrls.perBankWrBursts::0             49655                       # Per bank write bursts
system.mem_ctrls.perBankWrBursts::1             48547                       # Per bank write bursts
system.mem_ctrls.perBankWrBursts::2             50847                       # Per bank write bursts
system.mem_ctrls.perBankWrBursts::3             47145                       # Per bank write bursts
system.mem_ctrls.perBankWrBursts::4             46049                       # Per bank write bursts
system.mem_ctrls.perBankWrBursts::5             48789                       # Per bank write bursts
system.mem_ctrls.perBankWrBursts::6             49317                       # Per bank write bursts
system.mem_ctrls.perBankWrBursts::7             50618                       # Per bank write bursts
system.mem_ctrls.perBankWrBursts::8             50876                       # Per bank write bursts
system.mem_ctrls.perBankWrBursts::9             50734                       # Per bank write bursts
system.mem_ctrls.perBankWrBursts::10            50930                       # Per bank write bursts
system.mem_ctrls.perBankWrBursts::11            47021                       # Per bank write bursts
system.mem_ctrls.perBankWrBursts::12            46551                       # Per bank write bursts
system.mem_ctrls.perBankWrBursts::13            45327                       # Per bank write bursts
system.mem_ctrls.perBankWrBursts::14            46611                       # Per bank write bursts
system.mem_ctrls.perBankWrBursts::15            49211                       # Per bank write bursts
system.mem_ctrls.numRdRetry                         0                       # Number of times read queue was full causing retry
system.mem_ctrls.numWrRetry                         0                       # Number of times write queue was full causing retry
system.mem_ctrls.totGap                  3931956098000                       # Total gap between requests
system.mem_ctrls.readPktSize::0                     0                       # Read request sizes (log2)
system.mem_ctrls.readPktSize::1                     0                       # Read request sizes (log2)
system.mem_ctrls.readPktSize::2                     0                       # Read request sizes (log2)
system.mem_ctrls.readPktSize::3                     0                       # Read request sizes (log2)
system.mem_ctrls.readPktSize::4                     0                       # Read request sizes (log2)
system.mem_ctrls.readPktSize::5                     0                       # Read request sizes (log2)
system.mem_ctrls.readPktSize::6               1842328                       # Read request sizes (log2)
system.mem_ctrls.writePktSize::0                    0                       # Write request sizes (log2)
system.mem_ctrls.writePktSize::1                    0                       # Write request sizes (log2)
system.mem_ctrls.writePktSize::2                    0                       # Write request sizes (log2)
system.mem_ctrls.writePktSize::3                    0                       # Write request sizes (log2)
system.mem_ctrls.writePktSize::4                    0                       # Write request sizes (log2)
system.mem_ctrls.writePktSize::5                    0                       # Write request sizes (log2)
system.mem_ctrls.writePktSize::6               778241                       # Write request sizes (log2)
system.mem_ctrls.rdQLenPdf::0                 1840727                       # What read queue length does an incoming req see
system.mem_ctrls.rdQLenPdf::1                     818                       # What read queue length does an incoming req see
system.mem_ctrls.rdQLenPdf::2                      33                       # What read queue length does an incoming req see
system.mem_ctrls.rdQLenPdf::3                       2                       # What read queue length does an incoming req see
system.mem_ctrls.rdQLenPdf::4                       0                       # What read queue length does an incoming req see
system.mem_ctrls.rdQLenPdf::5                       0                       # What read queue length does an incoming req see
system.mem_ctrls.rdQLenPdf::6                       0                       # What read queue length does an incoming req see
system.mem_ctrls.rdQLenPdf::7                       0                       # What read queue length does an incoming req see
system.mem_ctrls.rdQLenPdf::8                       0                       # What read queue length does an incoming req see
system.mem_ctrls.rdQLenPdf::9                       0                       # What read queue length does an incoming req see
system.mem_ctrls.rdQLenPdf::10                      0                       # What read queue length does an incoming req see
system.mem_ctrls.rdQLenPdf::11                      0                       # What read queue length does an incoming req see
system.mem_ctrls.rdQLenPdf::12                      0                       # What read queue length does an incoming req see
system.mem_ctrls.rdQLenPdf::13                      0                       # What read queue length does an incoming req see
system.mem_ctrls.rdQLenPdf::14                      0                       # What read queue length does an incoming req see
system.mem_ctrls.rdQLenPdf::15                      0                       # What read queue length does an incoming req see
system.mem_ctrls.rdQLenPdf::16                      0                       # What read queue length does an incoming req see
system.mem_ctrls.rdQLenPdf::17                      0                       # What read queue length does an incoming req see
system.mem_ctrls.rdQLenPdf::18                      0                       # What read queue length does an incoming req see
system.mem_ctrls.rdQLenPdf::19                      0                       # What read queue length does an incoming req see
system.mem_ctrls.rdQLenPdf::20                      0                       # What read queue length does an incoming req see
system.mem_ctrls.rdQLenPdf::21                      0                       # What read queue length does an incoming req see
system.mem_ctrls.rdQLenPdf::22                      0                       # What read queue length does an incoming req see
system.mem_ctrls.rdQLenPdf::23                      0                       # What read queue length does an incoming req see
system.mem_ctrls.rdQLenPdf::24                      0                       # What read queue length does an incoming req see
system.mem_ctrls.rdQLenPdf::25                      0                       # What read queue length does an incoming req see
system.mem_ctrls.rdQLenPdf::26                      0                       # What read queue length does an incoming req see
system.mem_ctrls.rdQLenPdf::27                      0                       # What read queue length does an incoming req see
system.mem_ctrls.rdQLenPdf::28                      0                       # What read queue length does an incoming req see
system.mem_ctrls.rdQLenPdf::29                      0                       # What read queue length does an incoming req see
system.mem_ctrls.rdQLenPdf::30                      0                       # What read queue length does an incoming req see
system.mem_ctrls.rdQLenPdf::31                      0                       # What read queue length does an incoming req see
system.mem_ctrls.wrQLenPdf::0                       0                       # What write queue length does an incoming req see
system.mem_ctrls.wrQLenPdf::1                       0                       # What write queue length does an incoming req see
system.mem_ctrls.wrQLenPdf::2                       0                       # What write queue length does an incoming req see
system.mem_ctrls.wrQLenPdf::3                       0                       # What write queue length does an incoming req see
system.mem_ctrls.wrQLenPdf::4                       0                       # What write queue length does an incoming req see
system.mem_ctrls.wrQLenPdf::5                       0                       # What write queue length does an incoming req see
system.mem_ctrls.wrQLenPdf::6                       1                       # What write queue length does an incoming req see
system.mem_ctrls.wrQLenPdf::7                       1                       # What write queue length does an incoming req see
system.mem_ctrls.wrQLenPdf::8                       1                       # What write queue length does an incoming req see
system.mem_ctrls.wrQLenPdf::9                       1                       # What write queue length does an incoming req see
system.mem_ctrls.wrQLenPdf::10                      1                       # What write queue length does an incoming req see
system.mem_ctrls.wrQLenPdf::11                      1                       # What write queue length does an incoming req see
system.mem_ctrls.wrQLenPdf::12                      1                       # What write queue length does an incoming req see
system.mem_ctrls.wrQLenPdf::13                      1                       # What write queue length does an incoming req see
system.mem_ctrls.wrQLenPdf::14                      1                       # What write queue length does an incoming req see
system.mem_ctrls.wrQLenPdf::15                  22193                       # What write queue length does an incoming req see
system.mem_ctrls.wrQLenPdf::16                  24582                       # What write queue length does an incoming req see
system.mem_ctrls.wrQLenPdf::17                  39765                       # What write queue length does an incoming req see
system.mem_ctrls.wrQLenPdf::18                  46295                       # What write queue length does an incoming req see
system.mem_ctrls.wrQLenPdf::19                  46731                       # What write queue length does an incoming req see
system.mem_ctrls.wrQLenPdf::20                  46598                       # What write queue length does an incoming req see
system.mem_ctrls.wrQLenPdf::21                  46397                       # What write queue length does an incoming req see
system.mem_ctrls.wrQLenPdf::22                  46215                       # What write queue length does an incoming req see
system.mem_ctrls.wrQLenPdf::23                  46122                       # What write queue length does an incoming req see
system.mem_ctrls.wrQLenPdf::24                  46139                       # What write queue length does an incoming req see
system.mem_ctrls.wrQLenPdf::25                  46086                       # What write queue length does an incoming req see
system.mem_ctrls.wrQLenPdf::26                  46121                       # What write queue length does an incoming req see
system.mem_ctrls.wrQLenPdf::27                  46033                       # What write queue length does an incoming req see
system.mem_ctrls.wrQLenPdf::28                  46050                       # What write queue length does an incoming req see
system.mem_ctrls.wrQLenPdf::29                  45935                       # What write queue length does an incoming req see
system.mem_ctrls.wrQLenPdf::30                  45624                       # What write queue length does an incoming req see
system.mem_ctrls.wrQLenPdf::31                  45600                       # What write queue length does an incoming req see
system.mem_ctrls.wrQLenPdf::32                  45527                       # What write queue length does an incoming req see
system.mem_ctrls.wrQLenPdf::33                    150                       # What write queue length does an incoming req see
system.mem_ctrls.wrQLenPdf::34                     41                       # What write queue length does an incoming req see
system.mem_ctrls.wrQLenPdf::35                     15                       # What write queue length does an incoming req see
system.mem_ctrls.wrQLenPdf::36                      8                       # What write queue length does an incoming req see
system.mem_ctrls.wrQLenPdf::37                      3                       # What write queue length does an incoming req see
system.mem_ctrls.wrQLenPdf::38                      1                       # What write queue length does an incoming req see
system.mem_ctrls.wrQLenPdf::39                      1                       # What write queue length does an incoming req see
system.mem_ctrls.wrQLenPdf::40                      0                       # What write queue length does an incoming req see
system.mem_ctrls.wrQLenPdf::41                      0                       # What write queue length does an incoming req see
system.mem_ctrls.wrQLenPdf::42                      0                       # What write queue length does an incoming req see
system.mem_ctrls.wrQLenPdf::43                      0                       # What write queue length does an incoming req see
system.mem_ctrls.wrQLenPdf::44                      0                       # What write queue length does an incoming req see
system.mem_ctrls.wrQLenPdf::45                      0                       # What write queue length does an incoming req see
system.mem_ctrls.wrQLenPdf::46                      0                       # What write queue length does an incoming req see
system.mem_ctrls.wrQLenPdf::47                      0                       # What write queue length does an incoming req see
system.mem_ctrls.wrQLenPdf::48                      0                       # What write queue length does an incoming req see
system.mem_ctrls.wrQLenPdf::49                      0                       # What write queue length does an incoming req see
system.mem_ctrls.wrQLenPdf::50                      0                       # What write queue length does an incoming req see
system.mem_ctrls.wrQLenPdf::51                      0                       # What write queue length does an incoming req see
system.mem_ctrls.wrQLenPdf::52                      0                       # What write queue length does an incoming req see
system.mem_ctrls.wrQLenPdf::53                      0                       # What write queue length does an incoming req see
system.mem_ctrls.wrQLenPdf::54                      0                       # What write queue length does an incoming req see
system.mem_ctrls.wrQLenPdf::55                      0                       # What write queue length does an incoming req see
system.mem_ctrls.wrQLenPdf::56                      0                       # What write queue length does an incoming req see
system.mem_ctrls.wrQLenPdf::57                      0                       # What write queue length does an incoming req see
system.mem_ctrls.wrQLenPdf::58                      0                       # What write queue length does an incoming req see
system.mem_ctrls.wrQLenPdf::59                      0                       # What write queue length does an incoming req see
system.mem_ctrls.wrQLenPdf::60                      0                       # What write queue length does an incoming req see
system.mem_ctrls.wrQLenPdf::61                      0                       # What write queue length does an incoming req see
system.mem_ctrls.wrQLenPdf::62                      0                       # What write queue length does an incoming req see
system.mem_ctrls.wrQLenPdf::63                      0                       # What write queue length does an incoming req see
system.mem_ctrls.bytesPerActivate::samples      1350126                       # Bytes accessed per row activation
system.mem_ctrls.bytesPerActivate::mean    124.186667                       # Bytes accessed per row activation
system.mem_ctrls.bytesPerActivate::gmean    92.657589                       # Bytes accessed per row activation
system.mem_ctrls.bytesPerActivate::stdev   154.431448                       # Bytes accessed per row activation
system.mem_ctrls.bytesPerActivate::0-127       899254     66.61%     66.61% # Bytes accessed per row activation
system.mem_ctrls.bytesPerActivate::128-255       329665     24.42%     91.02% # Bytes accessed per row activation
system.mem_ctrls.bytesPerActivate::256-383        55844      4.14%     95.16% # Bytes accessed per row activation
system.mem_ctrls.bytesPerActivate::384-511        18949      1.40%     96.56% # Bytes accessed per row activation
system.mem_ctrls.bytesPerActivate::512-639        10463      0.77%     97.34% # Bytes accessed per row activation
system.mem_ctrls.bytesPerActivate::640-767         5858      0.43%     97.77% # Bytes accessed per row activation
system.mem_ctrls.bytesPerActivate::768-895         4072      0.30%     98.07% # Bytes accessed per row activation
system.mem_ctrls.bytesPerActivate::896-1023         5097      0.38%     98.45% # Bytes accessed per row activation
system.mem_ctrls.bytesPerActivate::1024-1151        20924      1.55%    100.00% # Bytes accessed per row activation
system.mem_ctrls.bytesPerActivate::total      1350126                       # Bytes accessed per row activation
system.mem_ctrls.rdPerTurnAround::samples        45519                       # Reads before turning the bus around for writes
system.mem_ctrls.rdPerTurnAround::mean      40.834223                       # Reads before turning the bus around for writes
system.mem_ctrls.rdPerTurnAround::stdev    104.962806                       # Reads before turning the bus around for writes
system.mem_ctrls.rdPerTurnAround::0-1023        45515     99.99%     99.99% # Reads before turning the bus around for writes
system.mem_ctrls.rdPerTurnAround::1024-2047            2      0.00%    100.00% # Reads before turning the bus around for writes
system.mem_ctrls.rdPerTurnAround::2048-3071            1      0.00%    100.00% # Reads before turning the bus around for writes
system.mem_ctrls.rdPerTurnAround::21504-22527            1      0.00%    100.00% # Reads before turning the bus around for writes
system.mem_ctrls.rdPerTurnAround::total         45519                       # Reads before turning the bus around for writes
system.mem_ctrls.wrPerTurnAround::samples        45519                       # Writes before turning the bus around for reads
system.mem_ctrls.wrPerTurnAround::mean      17.096773                       # Writes before turning the bus around for reads
system.mem_ctrls.wrPerTurnAround::gmean     17.062031                       # Writes before turning the bus around for reads
system.mem_ctrls.wrPerTurnAround::stdev      1.099280                       # Writes before turning the bus around for reads
system.mem_ctrls.wrPerTurnAround::16            21052     46.25%     46.25% # Writes before turning the bus around for reads
system.mem_ctrls.wrPerTurnAround::17             2126      4.67%     50.92% # Writes before turning the bus around for reads
system.mem_ctrls.wrPerTurnAround::18            19935     43.79%     94.71% # Writes before turning the bus around for reads
system.mem_ctrls.wrPerTurnAround::19             1977      4.34%     99.06% # Writes before turning the bus around for reads
system.mem_ctrls.wrPerTurnAround::20              293      0.64%     99.70% # Writes before turning the bus around for reads
system.mem_ctrls.wrPerTurnAround::21               77      0.17%     99.87% # Writes before turning the bus around for reads
system.mem_ctrls.wrPerTurnAround::22               25      0.05%     99.93% # Writes before turning the bus around for reads
system.mem_ctrls.wrPerTurnAround::23               14      0.03%     99.96% # Writes before turning the bus around for reads
system.mem_ctrls.wrPerTurnAround::24                3      0.01%     99.96% # Writes before turning the bus around for reads
system.mem_ctrls.wrPerTurnAround::25               10      0.02%     99.98% # Writes before turning the bus around for reads
system.mem_ctrls.wrPerTurnAround::26                5      0.01%    100.00% # Writes before turning the bus around for reads
system.mem_ctrls.wrPerTurnAround::28                1      0.00%    100.00% # Writes before turning the bus around for reads
system.mem_ctrls.wrPerTurnAround::32                1      0.00%    100.00% # Writes before turning the bus around for reads
system.mem_ctrls.wrPerTurnAround::total         45519                       # Writes before turning the bus around for reads
system.mem_ctrls.totQLat                  21068021999                       # Total ticks spent queuing
system.mem_ctrls.totMemAccLat             55597646999                       # Total ticks spent from burst creation until serviced by the DRAM
system.mem_ctrls.totBusLat                 9207900000                       # Total ticks spent in databus transfers
system.mem_ctrls.avgQLat                     11440.19                       # Average queueing delay per DRAM burst
system.mem_ctrls.avgBusLat                    5000.00                       # Average bus latency per DRAM burst
system.mem_ctrls.avgMemAccLat                30190.19                       # Average memory access latency per DRAM burst
system.mem_ctrls.avgRdBW                        29.98                       # Average DRAM read bandwidth in MiByte/s
system.mem_ctrls.avgWrBW                        12.67                       # Average achieved write bandwidth in MiByte/s
system.mem_ctrls.avgRdBWSys                     29.99                       # Average system read bandwidth in MiByte/s
system.mem_ctrls.avgWrBWSys                     12.67                       # Average system write bandwidth in MiByte/s
system.mem_ctrls.peakBW                      12800.00                       # Theoretical peak bandwidth in MiByte/s
system.mem_ctrls.busUtil                         0.33                       # Data bus utilization in percentage
system.mem_ctrls.busUtilRead                     0.23                       # Data bus utilization in percentage for reads
system.mem_ctrls.busUtilWrite                    0.10                       # Data bus utilization in percentage for writes
system.mem_ctrls.avgRdQLen                       1.00                       # Average read queue length when enqueuing
system.mem_ctrls.avgWrQLen                      24.66                       # Average write queue length when enqueuing
system.mem_ctrls.readRowHits                  1092552                       # Number of row buffer hits during reads
system.mem_ctrls.writeRowHits                  177130                       # Number of row buffer hits during writes
system.mem_ctrls.readRowHitRate                 59.33                       # Row buffer hit rate for reads
system.mem_ctrls.writeRowHitRate                22.76                       # Row buffer hit rate for writes
system.mem_ctrls.avgGap                    1500420.75                       # Average gap between requests
system.mem_ctrls.pageHitRate                    48.46                       # Row buffer hit rate, read and write combined
system.mem_ctrls_0.actEnergy               5180225400                       # Energy for activate commands per rank (pJ)
system.mem_ctrls_0.preEnergy               2826511875                       # Energy for precharge commands per rank (pJ)
system.mem_ctrls_0.readEnergy              7317952200                       # Energy for read commands per rank (pJ)
system.mem_ctrls_0.writeEnergy             2533466160                       # Energy for write commands per rank (pJ)
system.mem_ctrls_0.refreshEnergy         257050126320                       # Energy for refresh commands per rank (pJ)
system.mem_ctrls_0.actBackEnergy         490305813660                       # Energy for active background per rank (pJ)
system.mem_ctrls_0.preBackEnergy         1931229359250                       # Energy for precharge background per rank (pJ)
system.mem_ctrls_0.totalEnergy           2696443454865                       # Total energy per rank (pJ)
system.mem_ctrls_0.averagePower            685.152618                       # Core power per rank (mW)
system.mem_ctrls_0.memoryStateTime::IDLE 3208735801000                       # Time in different power states
system.mem_ctrls_0.memoryStateTime::REF  131296620000                       # Time in different power states
system.mem_ctrls_0.memoryStateTime::PRE_PDN            0                       # Time in different power states
system.mem_ctrls_0.memoryStateTime::ACT  591922411500                       # Time in different power states
system.mem_ctrls_0.memoryStateTime::ACT_PDN            0                       # Time in different power states
system.mem_ctrls_1.actEnergy               5057118360                       # Energy for activate commands per rank (pJ)
system.mem_ctrls_1.preEnergy               2759340375                       # Energy for precharge commands per rank (pJ)
system.mem_ctrls_1.readEnergy              7180165200                       # Energy for read commands per rank (pJ)
system.mem_ctrls_1.writeEnergy             2509451280                       # Energy for write commands per rank (pJ)
system.mem_ctrls_1.refreshEnergy         257050126320                       # Energy for refresh commands per rank (pJ)
system.mem_ctrls_1.actBackEnergy         489417892740                       # Energy for active background per rank (pJ)
system.mem_ctrls_1.preBackEnergy         1932008237250                       # Energy for precharge background per rank (pJ)
system.mem_ctrls_1.totalEnergy           2695982331525                       # Total energy per rank (pJ)
system.mem_ctrls_1.averagePower            685.035449                       # Core power per rank (mW)
system.mem_ctrls_1.memoryStateTime::IDLE 3210043709750                       # Time in different power states
system.mem_ctrls_1.memoryStateTime::REF  131296620000                       # Time in different power states
system.mem_ctrls_1.memoryStateTime::PRE_PDN            0                       # Time in different power states
system.mem_ctrls_1.memoryStateTime::ACT  590614712750                       # Time in different power states
system.mem_ctrls_1.memoryStateTime::ACT_PDN            0                       # Time in different power states
system.cpu_voltage_domain.voltage                   1                       # Voltage in Volts
system.cpu_clk_domain.clock                       500                       # Clock period in ticks
system.cpu0.apic_clk_domain.clock                8000                       # Clock period in ticks
system.cpu0.numCycles                      7863874554                       # number of cpu cycles simulated
system.cpu0.numWorkItemsStarted                     0                       # number of work items this cpu started
system.cpu0.numWorkItemsCompleted                   0                       # number of work items this cpu completed
system.cpu0.kern.inst.arm                           0                       # number of arm instructions executed
system.cpu0.kern.inst.quiesce                       0                       # number of quiesce instructions executed
system.cpu0.committedInsts                    4156758                       # Number of instructions committed
system.cpu0.committedOps                      8738036                       # Number of ops (including micro ops) committed
system.cpu0.num_int_alu_accesses              8566257                       # Number of integer alu accesses
system.cpu0.num_fp_alu_accesses                  1929                       # Number of float alu accesses
system.cpu0.num_func_calls                     242185                       # number of times a function call or return occured
system.cpu0.num_conditional_control_insts       620395                       # number of instructions that are conditional controls
system.cpu0.num_int_insts                     8566257                       # number of integer instructions
system.cpu0.num_fp_insts                         1929                       # number of float instructions
system.cpu0.num_int_register_reads           17358846                       # number of times the integer registers were read
system.cpu0.num_int_register_writes           7054543                       # number of times the integer registers were written
system.cpu0.num_fp_register_reads                3243                       # number of times the floating registers were read
system.cpu0.num_fp_register_writes               1535                       # number of times the floating registers were written
system.cpu0.num_cc_register_reads             4915234                       # number of times the CC registers were read
system.cpu0.num_cc_register_writes            2719734                       # number of times the CC registers were written
system.cpu0.num_mem_refs                      2041480                       # number of memory refs
system.cpu0.num_load_insts                    1267750                       # Number of load instructions
system.cpu0.num_store_insts                    773730                       # Number of store instructions
system.cpu0.num_idle_cycles              7845372842.832339                       # Number of idle cycles
system.cpu0.num_busy_cycles              18501711.167661                       # Number of busy cycles
system.cpu0.not_idle_fraction                0.002353                       # Percentage of non-idle cycles
system.cpu0.idle_fraction                    0.997647                       # Percentage of idle cycles
system.cpu0.Branches                           934540                       # Number of branches fetched
system.cpu0.op_class::No_OpClass               124688      1.43%      1.43% # Class of executed instruction
system.cpu0.op_class::IntAlu                  6512711     74.53%     75.96% # Class of executed instruction
system.cpu0.op_class::IntMult                   17168      0.20%     76.16% # Class of executed instruction
system.cpu0.op_class::IntDiv                    40621      0.46%     76.62% # Class of executed instruction
system.cpu0.op_class::FloatAdd                   1458      0.02%     76.64% # Class of executed instruction
system.cpu0.op_class::FloatCmp                      0      0.00%     76.64% # Class of executed instruction
system.cpu0.op_class::FloatCvt                      0      0.00%     76.64% # Class of executed instruction
system.cpu0.op_class::FloatMult                     0      0.00%     76.64% # Class of executed instruction
system.cpu0.op_class::FloatDiv                      0      0.00%     76.64% # Class of executed instruction
system.cpu0.op_class::FloatSqrt                     0      0.00%     76.64% # Class of executed instruction
system.cpu0.op_class::SimdAdd                       0      0.00%     76.64% # Class of executed instruction
system.cpu0.op_class::SimdAddAcc                    0      0.00%     76.64% # Class of executed instruction
system.cpu0.op_class::SimdAlu                       0      0.00%     76.64% # Class of executed instruction
system.cpu0.op_class::SimdCmp                       0      0.00%     76.64% # Class of executed instruction
system.cpu0.op_class::SimdCvt                       0      0.00%     76.64% # Class of executed instruction
system.cpu0.op_class::SimdMisc                      0      0.00%     76.64% # Class of executed instruction
system.cpu0.op_class::SimdMult                      0      0.00%     76.64% # Class of executed instruction
system.cpu0.op_class::SimdMultAcc                   0      0.00%     76.64% # Class of executed instruction
system.cpu0.op_class::SimdShift                     0      0.00%     76.64% # Class of executed instruction
system.cpu0.op_class::SimdShiftAcc                  0      0.00%     76.64% # Class of executed instruction
system.cpu0.op_class::SimdSqrt                      0      0.00%     76.64% # Class of executed instruction
system.cpu0.op_class::SimdFloatAdd                  0      0.00%     76.64% # Class of executed instruction
system.cpu0.op_class::SimdFloatAlu                  0      0.00%     76.64% # Class of executed instruction
system.cpu0.op_class::SimdFloatCmp                  0      0.00%     76.64% # Class of executed instruction
system.cpu0.op_class::SimdFloatCvt                  0      0.00%     76.64% # Class of executed instruction
system.cpu0.op_class::SimdFloatDiv                  0      0.00%     76.64% # Class of executed instruction
system.cpu0.op_class::SimdFloatMisc                 0      0.00%     76.64% # Class of executed instruction
system.cpu0.op_class::SimdFloatMult                 0      0.00%     76.64% # Class of executed instruction
system.cpu0.op_class::SimdFloatMultAcc              0      0.00%     76.64% # Class of executed instruction
system.cpu0.op_class::SimdFloatSqrt                 0      0.00%     76.64% # Class of executed instruction
system.cpu0.op_class::MemRead                 1267750     14.51%     91.15% # Class of executed instruction
system.cpu0.op_class::MemWrite                 773730      8.85%    100.00% # Class of executed instruction
system.cpu0.op_class::IprAccess                     0      0.00%    100.00% # Class of executed instruction
system.cpu0.op_class::InstPrefetch                  0      0.00%    100.00% # Class of executed instruction
system.cpu0.op_class::total                   8738126                       # Class of executed instruction
system.cpu1.apic_clk_domain.clock                8000                       # Clock period in ticks
system.cpu1.numCycles                      7864137687                       # number of cpu cycles simulated
system.cpu1.numWorkItemsStarted                     0                       # number of work items this cpu started
system.cpu1.numWorkItemsCompleted                   0                       # number of work items this cpu completed
system.cpu1.kern.inst.arm                           0                       # number of arm instructions executed
system.cpu1.kern.inst.quiesce                       0                       # number of quiesce instructions executed
system.cpu1.committedInsts                    2845500                       # Number of instructions committed
system.cpu1.committedOps                      6131961                       # Number of ops (including micro ops) committed
system.cpu1.num_int_alu_accesses              5995644                       # Number of integer alu accesses
system.cpu1.num_fp_alu_accesses                    39                       # Number of float alu accesses
system.cpu1.num_func_calls                     168072                       # number of times a function call or return occured
system.cpu1.num_conditional_control_insts       433030                       # number of instructions that are conditional controls
system.cpu1.num_int_insts                     5995644                       # number of integer instructions
system.cpu1.num_fp_insts                           39                       # number of float instructions
system.cpu1.num_int_register_reads           12195669                       # number of times the integer registers were read
system.cpu1.num_int_register_writes           4976557                       # number of times the integer registers were written
system.cpu1.num_fp_register_reads                  63                       # number of times the floating registers were read
system.cpu1.num_fp_register_writes                 31                       # number of times the floating registers were written
system.cpu1.num_cc_register_reads             3465836                       # number of times the CC registers were read
system.cpu1.num_cc_register_writes            1814087                       # number of times the CC registers were written
system.cpu1.num_mem_refs                      1460551                       # number of memory refs
system.cpu1.num_load_insts                     906624                       # Number of load instructions
system.cpu1.num_store_insts                    553927                       # Number of store instructions
system.cpu1.num_idle_cycles              7852017173.640248                       # Number of idle cycles
system.cpu1.num_busy_cycles              12120513.359752                       # Number of busy cycles
system.cpu1.not_idle_fraction                0.001541                       # Percentage of non-idle cycles
system.cpu1.idle_fraction                    0.998459                       # Percentage of idle cycles
system.cpu1.Branches                           656089                       # Number of branches fetched
system.cpu1.op_class::No_OpClass               116970      1.91%      1.91% # Class of executed instruction
system.cpu1.op_class::IntAlu                  4500302     73.39%     75.30% # Class of executed instruction
system.cpu1.op_class::IntMult                   12362      0.20%     75.50% # Class of executed instruction
system.cpu1.op_class::IntDiv                    41768      0.68%     76.18% # Class of executed instruction
system.cpu1.op_class::FloatAdd                     30      0.00%     76.18% # Class of executed instruction
system.cpu1.op_class::FloatCmp                      0      0.00%     76.18% # Class of executed instruction
system.cpu1.op_class::FloatCvt                      0      0.00%     76.18% # Class of executed instruction
system.cpu1.op_class::FloatMult                     0      0.00%     76.18% # Class of executed instruction
system.cpu1.op_class::FloatDiv                      0      0.00%     76.18% # Class of executed instruction
system.cpu1.op_class::FloatSqrt                     0      0.00%     76.18% # Class of executed instruction
system.cpu1.op_class::SimdAdd                       0      0.00%     76.18% # Class of executed instruction
system.cpu1.op_class::SimdAddAcc                    0      0.00%     76.18% # Class of executed instruction
system.cpu1.op_class::SimdAlu                       0      0.00%     76.18% # Class of executed instruction
system.cpu1.op_class::SimdCmp                       0      0.00%     76.18% # Class of executed instruction
system.cpu1.op_class::SimdCvt                       0      0.00%     76.18% # Class of executed instruction
system.cpu1.op_class::SimdMisc                      0      0.00%     76.18% # Class of executed instruction
system.cpu1.op_class::SimdMult                      0      0.00%     76.18% # Class of executed instruction
system.cpu1.op_class::SimdMultAcc                   0      0.00%     76.18% # Class of executed instruction
system.cpu1.op_class::SimdShift                     0      0.00%     76.18% # Class of executed instruction
system.cpu1.op_class::SimdShiftAcc                  0      0.00%     76.18% # Class of executed instruction
system.cpu1.op_class::SimdSqrt                      0      0.00%     76.18% # Class of executed instruction
system.cpu1.op_class::SimdFloatAdd                  0      0.00%     76.18% # Class of executed instruction
system.cpu1.op_class::SimdFloatAlu                  0      0.00%     76.18% # Class of executed instruction
system.cpu1.op_class::SimdFloatCmp                  0      0.00%     76.18% # Class of executed instruction
system.cpu1.op_class::SimdFloatCvt                  0      0.00%     76.18% # Class of executed instruction
system.cpu1.op_class::SimdFloatDiv                  0      0.00%     76.18% # Class of executed instruction
system.cpu1.op_class::SimdFloatMisc                 0      0.00%     76.18% # Class of executed instruction
system.cpu1.op_class::SimdFloatMult                 0      0.00%     76.18% # Class of executed instruction
system.cpu1.op_class::SimdFloatMultAcc              0      0.00%     76.18% # Class of executed instruction
system.cpu1.op_class::SimdFloatSqrt                 0      0.00%     76.18% # Class of executed instruction
system.cpu1.op_class::MemRead                  906624     14.79%     90.97% # Class of executed instruction
system.cpu1.op_class::MemWrite                 553927      9.03%    100.00% # Class of executed instruction
system.cpu1.op_class::IprAccess                     0      0.00%    100.00% # Class of executed instruction
system.cpu1.op_class::InstPrefetch                  0      0.00%    100.00% # Class of executed instruction
system.cpu1.op_class::total                   6131983                       # Class of executed instruction
system.cpu2.apic_clk_domain.clock                8000                       # Clock period in ticks
system.cpu2.numCycles                      7865001757                       # number of cpu cycles simulated
system.cpu2.numWorkItemsStarted                     0                       # number of work items this cpu started
system.cpu2.numWorkItemsCompleted                   0                       # number of work items this cpu completed
system.cpu2.kern.inst.arm                           0                       # number of arm instructions executed
system.cpu2.kern.inst.quiesce                       0                       # number of quiesce instructions executed
system.cpu2.committedInsts                 2239437517                       # Number of instructions committed
system.cpu2.committedOps                   3131838463                       # Number of ops (including micro ops) committed
system.cpu2.num_int_alu_accesses           1364884218                       # Number of integer alu accesses
system.cpu2.num_fp_alu_accesses            2127680265                       # Number of float alu accesses
system.cpu2.num_func_calls                    4832855                       # number of times a function call or return occured
system.cpu2.num_conditional_control_insts    125338232                       # number of instructions that are conditional controls
system.cpu2.num_int_insts                  1364884218                       # number of integer instructions
system.cpu2.num_fp_insts                   2127680265                       # number of float instructions
system.cpu2.num_int_register_reads         2745273591                       # number of times the integer registers were read
system.cpu2.num_int_register_writes         828383551                       # number of times the integer registers were written
system.cpu2.num_fp_register_reads          4601234005                       # number of times the floating registers were read
system.cpu2.num_fp_register_writes         2077617833                       # number of times the floating registers were written
system.cpu2.num_cc_register_reads           735869132                       # number of times the CC registers were read
system.cpu2.num_cc_register_writes          430120026                       # number of times the CC registers were written
system.cpu2.num_mem_refs                    408302468                       # number of memory refs
system.cpu2.num_load_insts                  353592635                       # Number of load instructions
system.cpu2.num_store_insts                  54709833                       # Number of store instructions
system.cpu2.num_idle_cycles              4782728.493618                       # Number of idle cycles
system.cpu2.num_busy_cycles              7860219028.506382                       # Number of busy cycles
system.cpu2.not_idle_fraction                0.999392                       # Percentage of non-idle cycles
system.cpu2.idle_fraction                    0.000608                       # Percentage of idle cycles
system.cpu2.Branches                        163299005                       # Number of branches fetched
system.cpu2.op_class::No_OpClass              2281677      0.07%      0.07% # Class of executed instruction
system.cpu2.op_class::IntAlu               1676589430     53.53%     53.61% # Class of executed instruction
system.cpu2.op_class::IntMult                   78914      0.00%     53.61% # Class of executed instruction
system.cpu2.op_class::IntDiv                    98985      0.00%     53.61% # Class of executed instruction
system.cpu2.op_class::FloatAdd             1044495651     33.35%     86.96% # Class of executed instruction
system.cpu2.op_class::FloatCmp                      0      0.00%     86.96% # Class of executed instruction
system.cpu2.op_class::FloatCvt                      0      0.00%     86.96% # Class of executed instruction
system.cpu2.op_class::FloatMult                     0      0.00%     86.96% # Class of executed instruction
system.cpu2.op_class::FloatDiv                      0      0.00%     86.96% # Class of executed instruction
system.cpu2.op_class::FloatSqrt                     0      0.00%     86.96% # Class of executed instruction
system.cpu2.op_class::SimdAdd                       0      0.00%     86.96% # Class of executed instruction
system.cpu2.op_class::SimdAddAcc                    0      0.00%     86.96% # Class of executed instruction
system.cpu2.op_class::SimdAlu                       0      0.00%     86.96% # Class of executed instruction
system.cpu2.op_class::SimdCmp                       0      0.00%     86.96% # Class of executed instruction
system.cpu2.op_class::SimdCvt                       0      0.00%     86.96% # Class of executed instruction
system.cpu2.op_class::SimdMisc                      0      0.00%     86.96% # Class of executed instruction
system.cpu2.op_class::SimdMult                      0      0.00%     86.96% # Class of executed instruction
system.cpu2.op_class::SimdMultAcc                   0      0.00%     86.96% # Class of executed instruction
system.cpu2.op_class::SimdShift                     0      0.00%     86.96% # Class of executed instruction
system.cpu2.op_class::SimdShiftAcc                  0      0.00%     86.96% # Class of executed instruction
system.cpu2.op_class::SimdSqrt                      0      0.00%     86.96% # Class of executed instruction
system.cpu2.op_class::SimdFloatAdd                  0      0.00%     86.96% # Class of executed instruction
system.cpu2.op_class::SimdFloatAlu                  0      0.00%     86.96% # Class of executed instruction
system.cpu2.op_class::SimdFloatCmp                  0      0.00%     86.96% # Class of executed instruction
system.cpu2.op_class::SimdFloatCvt                  0      0.00%     86.96% # Class of executed instruction
system.cpu2.op_class::SimdFloatDiv                  0      0.00%     86.96% # Class of executed instruction
system.cpu2.op_class::SimdFloatMisc                 0      0.00%     86.96% # Class of executed instruction
system.cpu2.op_class::SimdFloatMult                 0      0.00%     86.96% # Class of executed instruction
system.cpu2.op_class::SimdFloatMultAcc              0      0.00%     86.96% # Class of executed instruction
system.cpu2.op_class::SimdFloatSqrt                 0      0.00%     86.96% # Class of executed instruction
system.cpu2.op_class::MemRead               353592635     11.29%     98.25% # Class of executed instruction
system.cpu2.op_class::MemWrite               54709833      1.75%    100.00% # Class of executed instruction
system.cpu2.op_class::IprAccess                     0      0.00%    100.00% # Class of executed instruction
system.cpu2.op_class::InstPrefetch                  0      0.00%    100.00% # Class of executed instruction
system.cpu2.op_class::total                3131847125                       # Class of executed instruction
system.cpu3.apic_clk_domain.clock                8000                       # Clock period in ticks
system.cpu3.numCycles                      7864980924                       # number of cpu cycles simulated
system.cpu3.numWorkItemsStarted                     0                       # number of work items this cpu started
system.cpu3.numWorkItemsCompleted                   0                       # number of work items this cpu completed
system.cpu3.kern.inst.arm                           0                       # number of arm instructions executed
system.cpu3.kern.inst.quiesce                       0                       # number of quiesce instructions executed
system.cpu3.committedInsts                    2791569                       # Number of instructions committed
system.cpu3.committedOps                      6028169                       # Number of ops (including micro ops) committed
system.cpu3.num_int_alu_accesses              5894430                       # Number of integer alu accesses
system.cpu3.num_fp_alu_accesses                     0                       # Number of float alu accesses
system.cpu3.num_func_calls                     165912                       # number of times a function call or return occured
system.cpu3.num_conditional_control_insts       423940                       # number of instructions that are conditional controls
system.cpu3.num_int_insts                     5894430                       # number of integer instructions
system.cpu3.num_fp_insts                            0                       # number of float instructions
system.cpu3.num_int_register_reads           11984565                       # number of times the integer registers were read
system.cpu3.num_int_register_writes           4896848                       # number of times the integer registers were written
system.cpu3.num_fp_register_reads                   0                       # number of times the floating registers were read
system.cpu3.num_fp_register_writes                  0                       # number of times the floating registers were written
system.cpu3.num_cc_register_reads             3398093                       # number of times the CC registers were read
system.cpu3.num_cc_register_writes            1781958                       # number of times the CC registers were written
system.cpu3.num_mem_refs                      1433801                       # number of memory refs
system.cpu3.num_load_insts                     891449                       # Number of load instructions
system.cpu3.num_store_insts                    542352                       # Number of store instructions
system.cpu3.num_idle_cycles              7852930704.740180                       # Number of idle cycles
system.cpu3.num_busy_cycles              12050219.259820                       # Number of busy cycles
system.cpu3.not_idle_fraction                0.001532                       # Percentage of non-idle cycles
system.cpu3.idle_fraction                    0.998468                       # Percentage of idle cycles
system.cpu3.Branches                           644088                       # Number of branches fetched
system.cpu3.op_class::No_OpClass               114710      1.90%      1.90% # Class of executed instruction
system.cpu3.op_class::IntAlu                  4425668     73.42%     75.32% # Class of executed instruction
system.cpu3.op_class::IntMult                   12231      0.20%     75.52% # Class of executed instruction
system.cpu3.op_class::IntDiv                    41762      0.69%     76.21% # Class of executed instruction
system.cpu3.op_class::FloatAdd                      0      0.00%     76.21% # Class of executed instruction
system.cpu3.op_class::FloatCmp                      0      0.00%     76.21% # Class of executed instruction
system.cpu3.op_class::FloatCvt                      0      0.00%     76.21% # Class of executed instruction
system.cpu3.op_class::FloatMult                     0      0.00%     76.21% # Class of executed instruction
system.cpu3.op_class::FloatDiv                      0      0.00%     76.21% # Class of executed instruction
system.cpu3.op_class::FloatSqrt                     0      0.00%     76.21% # Class of executed instruction
system.cpu3.op_class::SimdAdd                       0      0.00%     76.21% # Class of executed instruction
system.cpu3.op_class::SimdAddAcc                    0      0.00%     76.21% # Class of executed instruction
system.cpu3.op_class::SimdAlu                       0      0.00%     76.21% # Class of executed instruction
system.cpu3.op_class::SimdCmp                       0      0.00%     76.21% # Class of executed instruction
system.cpu3.op_class::SimdCvt                       0      0.00%     76.21% # Class of executed instruction
system.cpu3.op_class::SimdMisc                      0      0.00%     76.21% # Class of executed instruction
system.cpu3.op_class::SimdMult                      0      0.00%     76.21% # Class of executed instruction
system.cpu3.op_class::SimdMultAcc                   0      0.00%     76.21% # Class of executed instruction
system.cpu3.op_class::SimdShift                     0      0.00%     76.21% # Class of executed instruction
system.cpu3.op_class::SimdShiftAcc                  0      0.00%     76.21% # Class of executed instruction
system.cpu3.op_class::SimdSqrt                      0      0.00%     76.21% # Class of executed instruction
system.cpu3.op_class::SimdFloatAdd                  0      0.00%     76.21% # Class of executed instruction
system.cpu3.op_class::SimdFloatAlu                  0      0.00%     76.21% # Class of executed instruction
system.cpu3.op_class::SimdFloatCmp                  0      0.00%     76.21% # Class of executed instruction
system.cpu3.op_class::SimdFloatCvt                  0      0.00%     76.21% # Class of executed instruction
system.cpu3.op_class::SimdFloatDiv                  0      0.00%     76.21% # Class of executed instruction
system.cpu3.op_class::SimdFloatMisc                 0      0.00%     76.21% # Class of executed instruction
system.cpu3.op_class::SimdFloatMult                 0      0.00%     76.21% # Class of executed instruction
system.cpu3.op_class::SimdFloatMultAcc              0      0.00%     76.21% # Class of executed instruction
system.cpu3.op_class::SimdFloatSqrt                 0      0.00%     76.21% # Class of executed instruction
system.cpu3.op_class::MemRead                  891449     14.79%     91.00% # Class of executed instruction
system.cpu3.op_class::MemWrite                 542352      9.00%    100.00% # Class of executed instruction
system.cpu3.op_class::IprAccess                     0      0.00%    100.00% # Class of executed instruction
system.cpu3.op_class::InstPrefetch                  0      0.00%    100.00% # Class of executed instruction
system.cpu3.op_class::total                   6028172                       # Class of executed instruction
system.iobus.trans_dist::ReadReq                  195                       # Transaction distribution
system.iobus.trans_dist::ReadResp                 195                       # Transaction distribution
system.iobus.trans_dist::WriteReq                4067                       # Transaction distribution
system.iobus.trans_dist::WriteResp               4067                       # Transaction distribution
system.iobus.trans_dist::MessageReq                17                       # Transaction distribution
system.iobus.trans_dist::MessageResp               17                       # Transaction distribution
system.iobus.pkt_count_system.pc.south_bridge.io_apic.int_master::system.ruby.l1_cntrl0.sequencer.pio-slave-port            4                       # Packet count per connected master and slave (bytes)
system.iobus.pkt_count_system.pc.south_bridge.io_apic.int_master::system.ruby.l1_cntrl1.sequencer.pio-slave-port            4                       # Packet count per connected master and slave (bytes)
system.iobus.pkt_count_system.pc.south_bridge.io_apic.int_master::system.ruby.l1_cntrl2.sequencer.pio-slave-port            4                       # Packet count per connected master and slave (bytes)
system.iobus.pkt_count_system.pc.south_bridge.io_apic.int_master::system.ruby.l1_cntrl3.sequencer.pio-slave-port            4                       # Packet count per connected master and slave (bytes)
system.iobus.pkt_count_system.pc.south_bridge.io_apic.int_master::total           16                       # Packet count per connected master and slave (bytes)
system.iobus.pkt_count_system.ruby.l1_cntrl0.sequencer.mem-master-port::system.pc.south_bridge.ide.pio           34                       # Packet count per connected master and slave (bytes)
system.iobus.pkt_count_system.ruby.l1_cntrl0.sequencer.mem-master-port::system.pc.south_bridge.io_apic.pio           14                       # Packet count per connected master and slave (bytes)
system.iobus.pkt_count_system.ruby.l1_cntrl0.sequencer.mem-master-port::system.pc.com_1.pio          174                       # Packet count per connected master and slave (bytes)
system.iobus.pkt_count_system.ruby.l1_cntrl0.sequencer.mem-master-port::system.ruby.l1_cntrl0.sequencer.pio-slave-port         1992                       # Packet count per connected master and slave (bytes)
system.iobus.pkt_count_system.ruby.l1_cntrl0.sequencer.mem-master-port::system.ruby.l1_cntrl1.sequencer.pio-slave-port            2                       # Packet count per connected master and slave (bytes)
system.iobus.pkt_count_system.ruby.l1_cntrl0.sequencer.mem-master-port::system.ruby.l1_cntrl2.sequencer.pio-slave-port            2                       # Packet count per connected master and slave (bytes)
system.iobus.pkt_count_system.ruby.l1_cntrl0.sequencer.mem-master-port::system.ruby.l1_cntrl3.sequencer.pio-slave-port            2                       # Packet count per connected master and slave (bytes)
system.iobus.pkt_count_system.ruby.l1_cntrl0.sequencer.mem-master-port::total         2220                       # Packet count per connected master and slave (bytes)
system.iobus.pkt_count_system.ruby.l1_cntrl1.sequencer.mem-master-port::system.pc.south_bridge.io_apic.pio           16                       # Packet count per connected master and slave (bytes)
system.iobus.pkt_count_system.ruby.l1_cntrl1.sequencer.mem-master-port::system.pc.com_1.pio            4                       # Packet count per connected master and slave (bytes)
system.iobus.pkt_count_system.ruby.l1_cntrl1.sequencer.mem-master-port::system.ruby.l1_cntrl1.sequencer.pio-slave-port         1984                       # Packet count per connected master and slave (bytes)
system.iobus.pkt_count_system.ruby.l1_cntrl1.sequencer.mem-master-port::system.ruby.l1_cntrl2.sequencer.pio-slave-port            2                       # Packet count per connected master and slave (bytes)
system.iobus.pkt_count_system.ruby.l1_cntrl1.sequencer.mem-master-port::total         2006                       # Packet count per connected master and slave (bytes)
system.iobus.pkt_count_system.ruby.l1_cntrl2.sequencer.mem-master-port::system.pc.south_bridge.ide.pio           46                       # Packet count per connected master and slave (bytes)
system.iobus.pkt_count_system.ruby.l1_cntrl2.sequencer.mem-master-port::system.pc.south_bridge.io_apic.pio            8                       # Packet count per connected master and slave (bytes)
system.iobus.pkt_count_system.ruby.l1_cntrl2.sequencer.mem-master-port::system.ruby.l1_cntrl1.sequencer.pio-slave-port            6                       # Packet count per connected master and slave (bytes)
system.iobus.pkt_count_system.ruby.l1_cntrl2.sequencer.mem-master-port::system.ruby.l1_cntrl2.sequencer.pio-slave-port         1998                       # Packet count per connected master and slave (bytes)
system.iobus.pkt_count_system.ruby.l1_cntrl2.sequencer.mem-master-port::system.ruby.l1_cntrl3.sequencer.pio-slave-port            2                       # Packet count per connected master and slave (bytes)
system.iobus.pkt_count_system.ruby.l1_cntrl2.sequencer.mem-master-port::total         2060                       # Packet count per connected master and slave (bytes)
system.iobus.pkt_count_system.ruby.l1_cntrl3.sequencer.mem-master-port::system.pc.south_bridge.ide.pio           12                       # Packet count per connected master and slave (bytes)
system.iobus.pkt_count_system.ruby.l1_cntrl3.sequencer.mem-master-port::system.pc.south_bridge.io_apic.pio            6                       # Packet count per connected master and slave (bytes)
system.iobus.pkt_count_system.ruby.l1_cntrl3.sequencer.mem-master-port::system.pc.com_1.pio          254                       # Packet count per connected master and slave (bytes)
system.iobus.pkt_count_system.ruby.l1_cntrl3.sequencer.mem-master-port::system.ruby.l1_cntrl0.sequencer.pio-slave-port            2                       # Packet count per connected master and slave (bytes)
system.iobus.pkt_count_system.ruby.l1_cntrl3.sequencer.mem-master-port::system.ruby.l1_cntrl3.sequencer.pio-slave-port         1982                       # Packet count per connected master and slave (bytes)
system.iobus.pkt_count_system.ruby.l1_cntrl3.sequencer.mem-master-port::total         2256                       # Packet count per connected master and slave (bytes)
system.iobus.pkt_count::total                    8558                       # Packet count per connected master and slave (bytes)
system.iobus.pkt_size_system.pc.south_bridge.io_apic.int_master::system.ruby.l1_cntrl0.sequencer.pio-slave-port            8                       # Cumulative packet size per connected master and slave (bytes)
system.iobus.pkt_size_system.pc.south_bridge.io_apic.int_master::system.ruby.l1_cntrl1.sequencer.pio-slave-port            8                       # Cumulative packet size per connected master and slave (bytes)
system.iobus.pkt_size_system.pc.south_bridge.io_apic.int_master::system.ruby.l1_cntrl2.sequencer.pio-slave-port            8                       # Cumulative packet size per connected master and slave (bytes)
system.iobus.pkt_size_system.pc.south_bridge.io_apic.int_master::system.ruby.l1_cntrl3.sequencer.pio-slave-port            8                       # Cumulative packet size per connected master and slave (bytes)
system.iobus.pkt_size_system.pc.south_bridge.io_apic.int_master::total           32                       # Cumulative packet size per connected master and slave (bytes)
system.iobus.pkt_size_system.ruby.l1_cntrl0.sequencer.mem-master-port::system.pc.south_bridge.ide.pio           20                       # Cumulative packet size per connected master and slave (bytes)
system.iobus.pkt_size_system.ruby.l1_cntrl0.sequencer.mem-master-port::system.pc.south_bridge.io_apic.pio           28                       # Cumulative packet size per connected master and slave (bytes)
system.iobus.pkt_size_system.ruby.l1_cntrl0.sequencer.mem-master-port::system.pc.com_1.pio           87                       # Cumulative packet size per connected master and slave (bytes)
system.iobus.pkt_size_system.ruby.l1_cntrl0.sequencer.mem-master-port::system.ruby.l1_cntrl0.sequencer.pio-slave-port         3984                       # Cumulative packet size per connected master and slave (bytes)
system.iobus.pkt_size_system.ruby.l1_cntrl0.sequencer.mem-master-port::system.ruby.l1_cntrl1.sequencer.pio-slave-port            4                       # Cumulative packet size per connected master and slave (bytes)
system.iobus.pkt_size_system.ruby.l1_cntrl0.sequencer.mem-master-port::system.ruby.l1_cntrl2.sequencer.pio-slave-port            4                       # Cumulative packet size per connected master and slave (bytes)
system.iobus.pkt_size_system.ruby.l1_cntrl0.sequencer.mem-master-port::system.ruby.l1_cntrl3.sequencer.pio-slave-port            4                       # Cumulative packet size per connected master and slave (bytes)
system.iobus.pkt_size_system.ruby.l1_cntrl0.sequencer.mem-master-port::total         4131                       # Cumulative packet size per connected master and slave (bytes)
system.iobus.pkt_size_system.ruby.l1_cntrl1.sequencer.mem-master-port::system.pc.south_bridge.io_apic.pio           32                       # Cumulative packet size per connected master and slave (bytes)
system.iobus.pkt_size_system.ruby.l1_cntrl1.sequencer.mem-master-port::system.pc.com_1.pio            2                       # Cumulative packet size per connected master and slave (bytes)
system.iobus.pkt_size_system.ruby.l1_cntrl1.sequencer.mem-master-port::system.ruby.l1_cntrl1.sequencer.pio-slave-port         3968                       # Cumulative packet size per connected master and slave (bytes)
system.iobus.pkt_size_system.ruby.l1_cntrl1.sequencer.mem-master-port::system.ruby.l1_cntrl2.sequencer.pio-slave-port            4                       # Cumulative packet size per connected master and slave (bytes)
system.iobus.pkt_size_system.ruby.l1_cntrl1.sequencer.mem-master-port::total         4006                       # Cumulative packet size per connected master and slave (bytes)
system.iobus.pkt_size_system.ruby.l1_cntrl2.sequencer.mem-master-port::system.pc.south_bridge.ide.pio           26                       # Cumulative packet size per connected master and slave (bytes)
system.iobus.pkt_size_system.ruby.l1_cntrl2.sequencer.mem-master-port::system.pc.south_bridge.io_apic.pio           16                       # Cumulative packet size per connected master and slave (bytes)
system.iobus.pkt_size_system.ruby.l1_cntrl2.sequencer.mem-master-port::system.ruby.l1_cntrl1.sequencer.pio-slave-port           12                       # Cumulative packet size per connected master and slave (bytes)
system.iobus.pkt_size_system.ruby.l1_cntrl2.sequencer.mem-master-port::system.ruby.l1_cntrl2.sequencer.pio-slave-port         3996                       # Cumulative packet size per connected master and slave (bytes)
system.iobus.pkt_size_system.ruby.l1_cntrl2.sequencer.mem-master-port::system.ruby.l1_cntrl3.sequencer.pio-slave-port            4                       # Cumulative packet size per connected master and slave (bytes)
system.iobus.pkt_size_system.ruby.l1_cntrl2.sequencer.mem-master-port::total         4054                       # Cumulative packet size per connected master and slave (bytes)
system.iobus.pkt_size_system.ruby.l1_cntrl3.sequencer.mem-master-port::system.pc.south_bridge.ide.pio            6                       # Cumulative packet size per connected master and slave (bytes)
system.iobus.pkt_size_system.ruby.l1_cntrl3.sequencer.mem-master-port::system.pc.south_bridge.io_apic.pio           12                       # Cumulative packet size per connected master and slave (bytes)
system.iobus.pkt_size_system.ruby.l1_cntrl3.sequencer.mem-master-port::system.pc.com_1.pio          127                       # Cumulative packet size per connected master and slave (bytes)
system.iobus.pkt_size_system.ruby.l1_cntrl3.sequencer.mem-master-port::system.ruby.l1_cntrl0.sequencer.pio-slave-port            4                       # Cumulative packet size per connected master and slave (bytes)
system.iobus.pkt_size_system.ruby.l1_cntrl3.sequencer.mem-master-port::system.ruby.l1_cntrl3.sequencer.pio-slave-port         3964                       # Cumulative packet size per connected master and slave (bytes)
system.iobus.pkt_size_system.ruby.l1_cntrl3.sequencer.mem-master-port::total         4113                       # Cumulative packet size per connected master and slave (bytes)
system.iobus.pkt_size::total                    16336                       # Cumulative packet size per connected master and slave (bytes)
system.iobus.reqLayer2.occupancy                85000                       # Layer occupancy (ticks)
system.iobus.reqLayer2.utilization                0.0                       # Layer utilization (%)
system.iobus.reqLayer8.occupancy                40495                       # Layer occupancy (ticks)
system.iobus.reqLayer8.utilization                0.0                       # Layer utilization (%)
system.iobus.reqLayer12.occupancy              276500                       # Layer occupancy (ticks)
system.iobus.reqLayer12.utilization               0.0                       # Layer utilization (%)
system.iobus.reqLayer17.occupancy             2479498                       # Layer occupancy (ticks)
system.iobus.reqLayer17.utilization               0.0                       # Layer utilization (%)
system.iobus.reqLayer18.occupancy             2486500                       # Layer occupancy (ticks)
system.iobus.reqLayer18.utilization               0.0                       # Layer utilization (%)
system.iobus.reqLayer19.occupancy             2753015                       # Layer occupancy (ticks)
system.iobus.reqLayer19.utilization               0.0                       # Layer utilization (%)
system.iobus.reqLayer20.occupancy             2479499                       # Layer occupancy (ticks)
system.iobus.reqLayer20.utilization               0.0                       # Layer utilization (%)
system.iobus.respLayer0.occupancy               11498                       # Layer occupancy (ticks)
system.iobus.respLayer0.utilization               0.0                       # Layer utilization (%)
system.iobus.respLayer2.occupancy             1683000                       # Layer occupancy (ticks)
system.iobus.respLayer2.utilization               0.0                       # Layer utilization (%)
system.iobus.respLayer4.occupancy             1504000                       # Layer occupancy (ticks)
system.iobus.respLayer4.utilization               0.0                       # Layer utilization (%)
system.iobus.respLayer6.occupancy             1544000                       # Layer occupancy (ticks)
system.iobus.respLayer6.utilization               0.0                       # Layer utilization (%)
system.iobus.respLayer8.occupancy             1724500                       # Layer occupancy (ticks)
system.iobus.respLayer8.utilization               0.0                       # Layer utilization (%)
system.pc.south_bridge.ide.disks.dma_read_full_pages            1                       # Number of full page size DMA reads (not PRD).
system.pc.south_bridge.ide.disks.dma_read_bytes         4096                       # Number of bytes transfered via DMA reads (not PRD).
system.pc.south_bridge.ide.disks.dma_read_txs            1                       # Number of DMA read transactions (not PRD).
system.pc.south_bridge.ide.disks.dma_write_full_pages           24                       # Number of full page size DMA writes.
system.pc.south_bridge.ide.disks.dma_write_bytes        98304                       # Number of bytes transfered via DMA writes.
system.pc.south_bridge.ide.disks.dma_write_txs           24                       # Number of DMA write transactions.
system.ruby.clk_domain.clock                      500                       # Clock period in ticks
system.ruby.outstanding_req_hist_seqr::bucket_size            1                      
system.ruby.outstanding_req_hist_seqr::max_bucket            9                      
system.ruby.outstanding_req_hist_seqr::samples   3806091941                      
system.ruby.outstanding_req_hist_seqr::mean     1.000000                      
system.ruby.outstanding_req_hist_seqr::gmean     1.000000                      
system.ruby.outstanding_req_hist_seqr::stdev     0.000230                      
system.ruby.outstanding_req_hist_seqr    |           0      0.00%      0.00% |  3806091740    100.00%    100.00% |         201      0.00%    100.00% |           0      0.00%    100.00% |           0      0.00%    100.00% |           0      0.00%    100.00% |           0      0.00%    100.00% |           0      0.00%    100.00% |           0      0.00%    100.00% |           0      0.00%    100.00%
system.ruby.outstanding_req_hist_seqr::total   3806091941                      
system.ruby.latency_hist_seqr::bucket_size          256                      
system.ruby.latency_hist_seqr::max_bucket         2559                      
system.ruby.latency_hist_seqr::samples     3806091941                      
system.ruby.latency_hist_seqr::mean          1.075852                      
system.ruby.latency_hist_seqr::gmean         1.004220                      
system.ruby.latency_hist_seqr::stdev         3.267732                      
system.ruby.latency_hist_seqr            |  3806043443    100.00%    100.00% |       29817      0.00%    100.00% |       18356      0.00%    100.00% |         300      0.00%    100.00% |          24      0.00%    100.00% |           1      0.00%    100.00% |           0      0.00%    100.00% |           0      0.00%    100.00% |           0      0.00%    100.00% |           0      0.00%    100.00%
system.ruby.latency_hist_seqr::total       3806091941                      
system.ruby.hit_latency_hist_seqr::bucket_size            1                      
system.ruby.hit_latency_hist_seqr::max_bucket            9                      
system.ruby.hit_latency_hist_seqr::samples   3801776084                      
system.ruby.hit_latency_hist_seqr::mean             1                      
system.ruby.hit_latency_hist_seqr::gmean            1                      
system.ruby.hit_latency_hist_seqr        |           0      0.00%      0.00% |  3801776084    100.00%    100.00% |           0      0.00%    100.00% |           0      0.00%    100.00% |           0      0.00%    100.00% |           0      0.00%    100.00% |           0      0.00%    100.00% |           0      0.00%    100.00% |           0      0.00%    100.00% |           0      0.00%    100.00%
system.ruby.hit_latency_hist_seqr::total   3801776084                      
system.ruby.miss_latency_hist_seqr::bucket_size          256                      
system.ruby.miss_latency_hist_seqr::max_bucket         2559                      
system.ruby.miss_latency_hist_seqr::samples      4315857                      
system.ruby.miss_latency_hist_seqr::mean    67.892953                      
[...]
system.ruby.L1Cache_Controller.S.L1_Replacement::total      2389501                      
system.ruby.L1Cache_Controller.S.Fwd_GETS |        2332     37.35%     37.35% |        1310     20.98%     58.33% |        1134     18.16%     76.49% |        1468     23.51%    100.00%
system.ruby.L1Cache_Controller.S.Fwd_GETS::total         6244                      
system.ruby.L1Cache_Controller.S.Inv     |        3121     19.12%     19.12% |        3400     20.83%     39.95% |        3125     19.15%     59.10% |        6675     40.90%    100.00%
system.ruby.L1Cache_Controller.S.Inv::total        16321                      
system.ruby.L1Cache_Controller.O.Load    |        1101     12.04%     12.04% |        1532     16.75%     28.79% |         442      4.83%     33.62% |        6071     66.38%    100.00%
system.ruby.L1Cache_Controller.O.Load::total         9146                      
system.ruby.L1Cache_Controller.O.Store   |          90     43.69%     43.69% |          65     31.55%     75.24% |          15      7.28%     82.52% |          36     17.48%    100.00%
system.ruby.L1Cache_Controller.O.Store::total          206                      
system.ruby.L1Cache_Controller.O.L1_Replacement |         150     18.38%     18.38% |         348     42.65%     61.03% |         184     22.55%     83.58% |         134     16.42%    100.00%
system.ruby.L1Cache_Controller.O.L1_Replacement::total          816                      
system.ruby.L1Cache_Controller.O.Fwd_GETX |        4196     21.57%     21.57% |        9090     46.72%     68.29% |         280      1.44%     69.73% |        5890     30.27%    100.00%
system.ruby.L1Cache_Controller.O.Fwd_GETX::total        19456                      
system.ruby.L1Cache_Controller.O.Fwd_GETS |        2030     10.60%     10.60% |       10089     52.67%     63.27% |         216      1.13%     64.40% |        6819     35.60%    100.00%
system.ruby.L1Cache_Controller.O.Fwd_GETS::total        19154                      
system.ruby.L1Cache_Controller.M.Load    |       63698      0.39%      0.39% |       67409      0.41%      0.80% |    16227078     98.78%     99.58% |       69476      0.42%    100.00%
system.ruby.L1Cache_Controller.M.Load::total     16427661                      
system.ruby.L1Cache_Controller.M.Store   |        9413      9.09%      9.09% |        3379      3.26%     12.35% |       86322     83.32%     95.67% |        4491      4.33%    100.00%
system.ruby.L1Cache_Controller.M.Store::total       103605                      
system.ruby.L1Cache_Controller.M.L1_Replacement |        4776      1.05%      1.05% |        1800      0.40%      1.45% |      444341     97.90%     99.35% |        2959      0.65%    100.00%
system.ruby.L1Cache_Controller.M.L1_Replacement::total       453876                      
system.ruby.L1Cache_Controller.M.Fwd_GETX |         875     55.80%     55.80% |         302     19.26%     75.06% |          73      4.66%     79.72% |         318     20.28%    100.00%
system.ruby.L1Cache_Controller.M.Fwd_GETX::total         1568                      
system.ruby.L1Cache_Controller.M.Fwd_GETS |        4469     21.87%     21.87% |        9493     46.45%     68.32% |         490      2.40%     70.71% |        5985     29.29%    100.00%
system.ruby.L1Cache_Controller.M.Fwd_GETS::total        20437                      
system.ruby.L1Cache_Controller.M_W.Load  |       17654      4.28%      4.28% |       11504      2.79%      7.07% |      371912     90.16%     97.23% |       11444      2.77%    100.00%
system.ruby.L1Cache_Controller.M_W.Load::total       412514                      
system.ruby.L1Cache_Controller.M_W.Store |        1597      3.16%      3.16% |         673      1.33%      4.50% |       47395     93.86%     98.35% |         831      1.65%    100.00%
system.ruby.L1Cache_Controller.M_W.Store::total        50496                      
system.ruby.L1Cache_Controller.M_W.L1_Replacement |           0      0.00%      0.00% |           0      0.00%      0.00% |          30    100.00%    100.00% |           0      0.00%    100.00%
system.ruby.L1Cache_Controller.M_W.L1_Replacement::total           30                      
system.ruby.L1Cache_Controller.M_W.Fwd_GETX |           0      0.00%      0.00% |          19     31.15%     31.15% |           3      4.92%     36.07% |          39     63.93%    100.00%
system.ruby.L1Cache_Controller.M_W.Fwd_GETX::total           61                      
system.ruby.L1Cache_Controller.M_W.Fwd_GETS |          59     18.61%     18.61% |         146     46.06%     64.67% |          12      3.79%     68.45% |         100     31.55%    100.00%
system.ruby.L1Cache_Controller.M_W.Fwd_GETS::total          317                      
system.ruby.L1Cache_Controller.M_W.Use_Timeout |       19548      3.37%      3.37% |       15060      2.60%      5.97% |      531340     91.67%     97.64% |       13691      2.36%    100.00%
system.ruby.L1Cache_Controller.M_W.Use_Timeout::total       579639                      
system.ruby.L1Cache_Controller.MM.Load   |     1425222      0.74%      0.74% |      749297      0.39%      1.13% |   188873882     98.32%     99.45% |     1055363      0.55%    100.00%
system.ruby.L1Cache_Controller.MM.Load::total    192103764                      
system.ruby.L1Cache_Controller.MM.Store  |     1396644      2.51%      2.51% |      782908      1.40%      3.91% |    52438321     94.10%     98.02% |     1105756      1.98%    100.00%
system.ruby.L1Cache_Controller.MM.Store::total     55723629                      
system.ruby.L1Cache_Controller.MM.L1_Replacement |       31250      2.75%      2.75% |       11962      1.05%      3.81% |     1070779     94.34%     98.15% |       21006      1.85%    100.00%
system.ruby.L1Cache_Controller.MM.L1_Replacement::total      1134997                      
system.ruby.L1Cache_Controller.MM.Fwd_GETX |        1523     25.93%     25.93% |        1124     19.14%     45.06% |        1681     28.62%     73.68% |        1546     26.32%    100.00%
system.ruby.L1Cache_Controller.MM.Fwd_GETX::total         5874                      
system.ruby.L1Cache_Controller.MM.Fwd_GETS |        9200     43.81%     43.81% |        3504     16.69%     60.50% |        4094     19.50%     80.00% |        4200     20.00%    100.00%
system.ruby.L1Cache_Controller.MM.Fwd_GETS::total        20998                      
system.ruby.L1Cache_Controller.MM.Fwd_DMA |           2      7.14%      7.14% |           0      0.00%      7.14% |          24     85.71%     92.86% |           2      7.14%    100.00%
system.ruby.L1Cache_Controller.MM.Fwd_DMA::total           28                      
system.ruby.L1Cache_Controller.MM_W.Load |        3481      1.85%      1.85% |        1270      0.67%      2.52% |      180453     95.82%     98.34% |        3127      1.66%    100.00%
system.ruby.L1Cache_Controller.MM_W.Load::total       188331                      
system.ruby.L1Cache_Controller.MM_W.Store |      109198      5.70%      5.70% |       48650      2.54%      8.24% |     1679316     87.61%     95.85% |       79564      4.15%    100.00%
system.ruby.L1Cache_Controller.MM_W.Store::total      1916728                      
system.ruby.L1Cache_Controller.MM_W.Fwd_GETX |          11     39.29%     39.29% |           7     25.00%     64.29% |           0      0.00%     64.29% |          10     35.71%    100.00%
system.ruby.L1Cache_Controller.MM_W.Fwd_GETX::total           28                      
system.ruby.L1Cache_Controller.MM_W.Fwd_GETS |         562     31.08%     31.08% |         581     32.13%     63.22% |         486     26.88%     90.10% |         179      9.90%    100.00%
system.ruby.L1Cache_Controller.MM_W.Fwd_GETS::total         1808                      
system.ruby.L1Cache_Controller.MM_W.Use_Timeout |       32177      3.04%      3.04% |       14010      1.32%      4.36% |      989976     93.47%     97.83% |       22950      2.17%    100.00%
system.ruby.L1Cache_Controller.MM_W.Use_Timeout::total      1059113                      
system.ruby.L1Cache_Controller.IM.Ack    |        9438     40.24%     40.24% |        4011     17.10%     57.34% |        3188     13.59%     70.94% |        6816     29.06%    100.00%
system.ruby.L1Cache_Controller.IM.Ack::total        23453                      
system.ruby.L1Cache_Controller.IM.Exclusive_Data |       23157      4.08%      4.08% |       11589      2.04%      6.12% |      518213     91.28%     97.40% |       14745      2.60%    100.00%
system.ruby.L1Cache_Controller.IM.Exclusive_Data::total       567704                      
system.ruby.L1Cache_Controller.SM.Ack    |        9690     56.22%     56.22% |        1268      7.36%     63.58% |        3145     18.25%     81.83% |        3132     18.17%    100.00%
system.ruby.L1Cache_Controller.SM.Ack::total        17235                      
system.ruby.L1Cache_Controller.SM.Exclusive_Data |        7333      1.66%      1.66% |        1683      0.38%      2.05% |      424353     96.29%     98.33% |        7338      1.67%    100.00%
system.ruby.L1Cache_Controller.SM.Exclusive_Data::total       440707                      
system.ruby.L1Cache_Controller.OM.Own_GETX |          90     43.69%     43.69% |          65     31.55%     75.24% |          15      7.28%     82.52% |          36     17.48%    100.00%
system.ruby.L1Cache_Controller.OM.Own_GETX::total          206                      
system.ruby.L1Cache_Controller.OM.Ack    |         824     30.11%     30.11% |         788     28.79%     58.90% |         315     11.51%     70.41% |         810     29.59%    100.00%
system.ruby.L1Cache_Controller.OM.Ack::total         2737                      
system.ruby.L1Cache_Controller.OM.All_acks |       30580      3.03%      3.03% |       13337      1.32%      4.35% |      942581     93.45%     97.81% |       22119      2.19%    100.00%
system.ruby.L1Cache_Controller.OM.All_acks::total      1008617                      
system.ruby.L1Cache_Controller.IS.Data   |      107218      3.77%      3.77% |       64175      2.25%      6.02% |     2580815     90.64%     96.66% |       94980      3.34%    100.00%
system.ruby.L1Cache_Controller.IS.Data::total      2847188                      
system.ruby.L1Cache_Controller.IS.Exclusive_Data |       21145      3.36%      3.36% |       15733      2.50%      5.85% |      578735     91.84%     97.70% |       14522      2.30%    100.00%
system.ruby.L1Cache_Controller.IS.Exclusive_Data::total       630135                      
system.ruby.L1Cache_Controller.SI.Load   |           2      6.90%      6.90% |           0      0.00%      6.90% |          27     93.10%    100.00% |           0      0.00%    100.00%
system.ruby.L1Cache_Controller.SI.Load::total           29                      
system.ruby.L1Cache_Controller.SI.Ifetch |           0      0.00%      0.00% |           0      0.00%      0.00% |           0      0.00%      0.00% |           8    100.00%    100.00%
system.ruby.L1Cache_Controller.SI.Ifetch::total            8                      
system.ruby.L1Cache_Controller.SI.Writeback_Ack |       83632      5.03%      5.03% |       54424      3.28%      8.31% |     1452047     87.39%     95.70% |       71491      4.30%    100.00%
system.ruby.L1Cache_Controller.SI.Writeback_Ack::total      1661594                      
system.ruby.L1Cache_Controller.SI.Writeback_Ack_Data |       13541      1.86%      1.86% |        3902      0.54%      2.40% |      701028     96.31%     98.70% |        9436      1.30%    100.00%
system.ruby.L1Cache_Controller.SI.Writeback_Ack_Data::total       727907                      
system.ruby.L1Cache_Controller.OI.Writeback_Ack_Data |         150     18.38%     18.38% |         348     42.65%     61.03% |         184     22.55%     83.58% |         134     16.42%    100.00%
system.ruby.L1Cache_Controller.OI.Writeback_Ack_Data::total          816                      
system.ruby.L1Cache_Controller.MI.Load   |           0      0.00%      0.00% |           0      0.00%      0.00% |           5    100.00%    100.00% |           0      0.00%    100.00%
system.ruby.L1Cache_Controller.MI.Load::total            5                      
system.ruby.L1Cache_Controller.MI.Writeback_Ack_Data |       36026      2.27%      2.27% |       13762      0.87%      3.13% |     1515120     95.36%     98.49% |       23965      1.51%    100.00%
system.ruby.L1Cache_Controller.MI.Writeback_Ack_Data::total      1588873                      
system.ruby.L2Cache_Controller.L1_GETS        3477996      0.00%      0.00%
system.ruby.L2Cache_Controller.L1_GETX        1008625      0.00%      0.00%
system.ruby.L2Cache_Controller.L1_PUTO            816      0.00%      0.00%
system.ruby.L2Cache_Controller.L1_PUTX        1588873      0.00%      0.00%
system.ruby.L2Cache_Controller.L1_PUTS_only      2191662      0.00%      0.00%
system.ruby.L2Cache_Controller.L1_PUTS         197844      0.00%      0.00%
system.ruby.L2Cache_Controller.Fwd_DMA             28      0.00%      0.00%
system.ruby.L2Cache_Controller.All_Acks        815988      0.00%      0.00%
system.ruby.L2Cache_Controller.Data           1886600      0.00%      0.00%
system.ruby.L2Cache_Controller.L1_WBCLEANDATA       727907      0.00%      0.00%
system.ruby.L2Cache_Controller.L1_WBDIRTYDATA      1589689      0.00%      0.00%
system.ruby.L2Cache_Controller.Writeback_Ack       800647      0.00%      0.00%
system.ruby.L2Cache_Controller.Unblock        4508782      0.00%      0.00%
system.ruby.L2Cache_Controller.Exclusive_Unblock      1638752      0.00%      0.00%
system.ruby.L2Cache_Controller.DmaAck              28      0.00%      0.00%
system.ruby.L2Cache_Controller.L2_Replacement      1427104      0.00%      0.00%
system.ruby.L2Cache_Controller.NP.L1_GETS      1070612      0.00%      0.00%
system.ruby.L2Cache_Controller.NP.L1_GETX       368469      0.00%      0.00%
system.ruby.L2Cache_Controller.ILS.L1_GETS         6244      0.00%      0.00%
system.ruby.L2Cache_Controller.ILS.L1_GETX       351101      0.00%      0.00%
system.ruby.L2Cache_Controller.ILS.L1_PUTS_only       720034      0.00%      0.00%
system.ruby.L2Cache_Controller.ILS.L1_PUTS         7873      0.00%      0.00%
system.ruby.L2Cache_Controller.ILX.L1_GETS        41435      0.00%      0.00%
system.ruby.L2Cache_Controller.ILX.L1_GETX         7442      0.00%      0.00%
system.ruby.L2Cache_Controller.ILX.L1_PUTX      1588873      0.00%      0.00%
system.ruby.L2Cache_Controller.ILX.Fwd_DMA           28      0.00%      0.00%
system.ruby.L2Cache_Controller.ILOX.L1_GETS         8340      0.00%      0.00%
system.ruby.L2Cache_Controller.ILOX.L1_GETX         2082      0.00%      0.00%
system.ruby.L2Cache_Controller.ILOX.L1_PUTO          410      0.00%      0.00%
system.ruby.L2Cache_Controller.ILOSX.L1_GETS        10814      0.00%      0.00%
system.ruby.L2Cache_Controller.ILOSX.L1_GETX        17580      0.00%      0.00%
system.ruby.L2Cache_Controller.ILOSX.L1_PUTO          406      0.00%      0.00%
system.ruby.L2Cache_Controller.ILOSX.L1_PUTS_only        10872      0.00%      0.00%
system.ruby.L2Cache_Controller.ILOSX.L1_PUTS         3184      0.00%      0.00%
system.ruby.L2Cache_Controller.S.L1_GETS      1541430      0.00%      0.00%
system.ruby.L2Cache_Controller.S.L1_GETX        16810      0.00%      0.00%
system.ruby.L2Cache_Controller.S.L2_Replacement       618004      0.00%      0.00%
system.ruby.L2Cache_Controller.OLSX.L1_GETS         6973      0.00%      0.00%
system.ruby.L2Cache_Controller.OLSX.L1_GETX          174      0.00%      0.00%
system.ruby.L2Cache_Controller.OLSX.L1_PUTS_only          163      0.00%      0.00%
system.ruby.L2Cache_Controller.OLSX.L1_PUTS         6796      0.00%      0.00%
system.ruby.L2Cache_Controller.OLSX.L2_Replacement           42      0.00%      0.00%
system.ruby.L2Cache_Controller.SLS.L1_GETS       182338      0.00%      0.00%
system.ruby.L2Cache_Controller.SLS.L1_GETX        79608      0.00%      0.00%
system.ruby.L2Cache_Controller.SLS.L1_PUTS_only      1460591      0.00%      0.00%
system.ruby.L2Cache_Controller.SLS.L1_PUTS       179988      0.00%      0.00%
system.ruby.L2Cache_Controller.SLS.L2_Replacement         8453      0.00%      0.00%
system.ruby.L2Cache_Controller.M.L1_GETS       609137      0.00%      0.00%
system.ruby.L2Cache_Controller.M.L1_GETX       165351      0.00%      0.00%
system.ruby.L2Cache_Controller.M.L2_Replacement       800605      0.00%      0.00%
system.ruby.L2Cache_Controller.ILOXW.L1_WBDIRTYDATA          410      0.00%      0.00%
system.ruby.L2Cache_Controller.ILOXW.Unblock        10872      0.00%      0.00%
system.ruby.L2Cache_Controller.ILOSXW.L1_PUTS_only            2      0.00%      0.00%
system.ruby.L2Cache_Controller.ILOSXW.L1_WBDIRTYDATA          406      0.00%      0.00%
system.ruby.L2Cache_Controller.ILOSXW.Unblock         3184      0.00%      0.00%
system.ruby.L2Cache_Controller.SLSW.L1_GETS            4      0.00%      0.00%
system.ruby.L2Cache_Controller.SLSW.L1_PUTS            3      0.00%      0.00%
system.ruby.L2Cache_Controller.SLSW.Unblock       179988      0.00%      0.00%
system.ruby.L2Cache_Controller.ILSW.L1_WBCLEANDATA         7873      0.00%      0.00%
system.ruby.L2Cache_Controller.IW.L1_WBCLEANDATA       720034      0.00%      0.00%
system.ruby.L2Cache_Controller.SW.L1_GETS            2      0.00%      0.00%
system.ruby.L2Cache_Controller.SW.Unblock      1460591      0.00%      0.00%
system.ruby.L2Cache_Controller.OXW.Unblock          163      0.00%      0.00%
system.ruby.L2Cache_Controller.OLSXW.Unblock         6796      0.00%      0.00%
system.ruby.L2Cache_Controller.ILXW.L1_WBDIRTYDATA      1588873      0.00%      0.00%
system.ruby.L2Cache_Controller.IFLS.L1_GETS            1      0.00%      0.00%
system.ruby.L2Cache_Controller.IFLS.Unblock         6244      0.00%      0.00%
system.ruby.L2Cache_Controller.IFLOX.Unblock         8340      0.00%      0.00%
system.ruby.L2Cache_Controller.IFLOX.Exclusive_Unblock          174      0.00%      0.00%
system.ruby.L2Cache_Controller.IFLOXX.L1_GETS          120      0.00%      0.00%
system.ruby.L2Cache_Controller.IFLOXX.L1_GETX            8      0.00%      0.00%
system.ruby.L2Cache_Controller.IFLOXX.Unblock        20437      0.00%      0.00%
system.ruby.L2Cache_Controller.IFLOXX.Exclusive_Unblock        30522      0.00%      0.00%
system.ruby.L2Cache_Controller.IFLOSX.Unblock        10814      0.00%      0.00%
system.ruby.L2Cache_Controller.IFLXO.L1_GETS           86      0.00%      0.00%
system.ruby.L2Cache_Controller.IFLXO.Exclusive_Unblock        17580      0.00%      0.00%
system.ruby.L2Cache_Controller.IGS.L1_GETS          453      0.00%      0.00%
system.ruby.L2Cache_Controller.IGS.Data       1070612      0.00%      0.00%
system.ruby.L2Cache_Controller.IGS.Unblock      1070612      0.00%      0.00%
system.ruby.L2Cache_Controller.IGM.Data        385279      0.00%      0.00%
system.ruby.L2Cache_Controller.IGMLS.Data       430709      0.00%      0.00%
system.ruby.L2Cache_Controller.IGMO.All_Acks       815988      0.00%      0.00%
system.ruby.L2Cache_Controller.IGMO.Exclusive_Unblock       815988      0.00%      0.00%
system.ruby.L2Cache_Controller.MM.Exclusive_Unblock       165351      0.00%      0.00%
system.ruby.L2Cache_Controller.SS.Unblock      1541430      0.00%      0.00%
system.ruby.L2Cache_Controller.OO.L1_GETS            2      0.00%      0.00%
system.ruby.L2Cache_Controller.OO.Exclusive_Unblock       609137      0.00%      0.00%
system.ruby.L2Cache_Controller.OLSXS.Unblock         6973      0.00%      0.00%
system.ruby.L2Cache_Controller.SLSS.L1_GETS            4      0.00%      0.00%
system.ruby.L2Cache_Controller.SLSS.Unblock       182338      0.00%      0.00%
system.ruby.L2Cache_Controller.MI.L1_GETS            1      0.00%      0.00%
system.ruby.L2Cache_Controller.MI.Writeback_Ack       800605      0.00%      0.00%
system.ruby.L2Cache_Controller.OLSI.Writeback_Ack           42      0.00%      0.00%
system.ruby.L2Cache_Controller.ILXD.DmaAck           28      0.00%      0.00%

---------- End Simulation Statistics   ----------
