Redirecting stdout to /root/anthony/lelec2990-sim2/splash2x.fmm/X86_MOESI_CMP_directory/l1d_size/128kB/stdout.txt
Redirecting stderr to /root/anthony/lelec2990-sim2/splash2x.fmm/X86_MOESI_CMP_directory/l1d_size/128kB/stderr.txt
gem5 Simulator System.  http://gem5.org
gem5 is copyrighted software; use the --copyright option for details.

gem5 compiled Jun  1 2016 12:35:49
gem5 started Jun  4 2016 04:48:23
gem5 executing on chacana.info.ucl.ac.be, pid 1525541
command line: /root/anthony/gem5/build/X86_MOESI_CMP_directory/gem5.opt --outdir=/root/anthony/lelec2990-sim2/splash2x.fmm/X86_MOESI_CMP_directory/l1d_size/128kB -e --stderr-file=/root/anthony/lelec2990-sim2/splash2x.fmm/X86_MOESI_CMP_directory/l1d_size/128kB/stderr.txt -r --stdout-file=/root/anthony/lelec2990-sim2/splash2x.fmm/X86_MOESI_CMP_directory/l1d_size/128kB/stdout.txt /root/anthony/gem5/configs/example/fs.py --mem-size 1GB --script /root/anthony/lelec2990-sim2/my_sim_script --num-cpus 4 --ruby -r 1 --restore-with-cpu timing --l1d_size 128kB

Global frequency set at 1000000000000 ticks per second
info: kernel located at: /root/anthony/debian/binaries/vmlinux
      0: rtc: Real-time clock set to Sun Jan  1 00:00:00 2012
**** REAL SIMULATION ****
info: Entering event queue @ 51221644263000.  Starting simulation...
Exiting @ tick 55174024264001 because m5_exit instruction encountered
