
---------- Begin Simulation Statistics ----------
sim_seconds                                  2.356562                       # Number of seconds simulated
sim_ticks                                2356562044000                       # Number of ticks simulated
final_tick                               55182352676001                       # Number of ticks from beginning of simulation (restored from checkpoints and never reset)
sim_freq                                 1000000000000                       # Frequency of simulated ticks
host_inst_rate                                 140016                       # Simulator instruction rate (inst/s)
host_op_rate                                   253801                       # Simulator op (including micro ops) rate (op/s)
host_tick_rate                              251326884                       # Simulator tick rate (ticks/s)
host_mem_usage                                1850076                       # Number of bytes of host memory used
host_seconds                                  9376.48                       # Real time elapsed on the host
sim_insts                                  1312857586                       # Number of instructions simulated
sim_ops                                    2379764227                       # Number of ops (including micro ops) simulated
system.voltage_domain.voltage                       1                       # Voltage in Volts
system.clk_domain.clock                          1000                       # Clock period in ticks
system.mem_ctrls0.bytes_read::ruby.dir_cntrl0     20092480                       # Number of bytes read from this memory
system.mem_ctrls0.bytes_read::total          20092480                       # Number of bytes read from this memory
system.mem_ctrls0.bytes_written::ruby.dir_cntrl0      9891968                       # Number of bytes written to this memory
system.mem_ctrls0.bytes_written::total        9891968                       # Number of bytes written to this memory
system.mem_ctrls0.num_reads::ruby.dir_cntrl0       313945                       # Number of read requests responded to by this memory
system.mem_ctrls0.num_reads::total             313945                       # Number of read requests responded to by this memory
system.mem_ctrls0.num_writes::ruby.dir_cntrl0       154562                       # Number of write requests responded to by this memory
system.mem_ctrls0.num_writes::total            154562                       # Number of write requests responded to by this memory
system.mem_ctrls0.bw_read::ruby.dir_cntrl0      8526183                       # Total read bandwidth from this memory (bytes/s)
system.mem_ctrls0.bw_read::total              8526183                       # Total read bandwidth from this memory (bytes/s)
system.mem_ctrls0.bw_write::ruby.dir_cntrl0      4197627                       # Write bandwidth from this memory (bytes/s)
system.mem_ctrls0.bw_write::total             4197627                       # Write bandwidth from this memory (bytes/s)
system.mem_ctrls0.bw_total::ruby.dir_cntrl0     12723810                       # Total bandwidth to/from this memory (bytes/s)
system.mem_ctrls0.bw_total::total            12723810                       # Total bandwidth to/from this memory (bytes/s)
system.mem_ctrls0.readReqs                     313945                       # Number of read requests accepted
system.mem_ctrls0.writeReqs                    154562                       # Number of write requests accepted
system.mem_ctrls0.readBursts                   313945                       # Number of DRAM read bursts, including those serviced by the write queue
system.mem_ctrls0.writeBursts                  154562                       # Number of DRAM write bursts, including those merged in the write queue
system.mem_ctrls0.bytesReadDRAM              20046144                       # Total number of bytes read from DRAM
system.mem_ctrls0.bytesReadWrQ                  46336                       # Total number of bytes read from write queue
system.mem_ctrls0.bytesWritten                9889088                       # Total number of bytes written to DRAM
system.mem_ctrls0.bytesReadSys               20092480                       # Total read bytes from the system interface side
system.mem_ctrls0.bytesWrittenSys             9891968                       # Total written bytes from the system interface side
system.mem_ctrls0.servicedByWrQ                   724                       # Number of DRAM read bursts serviced by the write queue
system.mem_ctrls0.mergedWrBursts                   32                       # Number of DRAM write bursts merged with an existing one
system.mem_ctrls0.neitherReadNorWriteReqs            0                       # Number of requests that are neither read nor write
system.mem_ctrls0.perBankRdBursts::0            21565                       # Per bank write bursts
system.mem_ctrls0.perBankRdBursts::1            18047                       # Per bank write bursts
system.mem_ctrls0.perBankRdBursts::2            16182                       # Per bank write bursts
system.mem_ctrls0.perBankRdBursts::3            18998                       # Per bank write bursts
system.mem_ctrls0.perBankRdBursts::4            17649                       # Per bank write bursts
system.mem_ctrls0.perBankRdBursts::5            15970                       # Per bank write bursts
system.mem_ctrls0.perBankRdBursts::6            19911                       # Per bank write bursts
system.mem_ctrls0.perBankRdBursts::7            20989                       # Per bank write bursts
system.mem_ctrls0.perBankRdBursts::8            17620                       # Per bank write bursts
system.mem_ctrls0.perBankRdBursts::9            20209                       # Per bank write bursts
system.mem_ctrls0.perBankRdBursts::10           21682                       # Per bank write bursts
system.mem_ctrls0.perBankRdBursts::11           19298                       # Per bank write bursts
system.mem_ctrls0.perBankRdBursts::12           21301                       # Per bank write bursts
system.mem_ctrls0.perBankRdBursts::13           24120                       # Per bank write bursts
system.mem_ctrls0.perBankRdBursts::14           19876                       # Per bank write bursts
system.mem_ctrls0.perBankRdBursts::15           19804                       # Per bank write bursts
system.mem_ctrls0.perBankWrBursts::0            11219                       # Per bank write bursts
system.mem_ctrls0.perBankWrBursts::1             9375                       # Per bank write bursts
system.mem_ctrls0.perBankWrBursts::2             8513                       # Per bank write bursts
system.mem_ctrls0.perBankWrBursts::3             9398                       # Per bank write bursts
system.mem_ctrls0.perBankWrBursts::4             8549                       # Per bank write bursts
system.mem_ctrls0.perBankWrBursts::5             7822                       # Per bank write bursts
system.mem_ctrls0.perBankWrBursts::6             9762                       # Per bank write bursts
system.mem_ctrls0.perBankWrBursts::7            10323                       # Per bank write bursts
system.mem_ctrls0.perBankWrBursts::8             8842                       # Per bank write bursts
system.mem_ctrls0.perBankWrBursts::9            10134                       # Per bank write bursts
system.mem_ctrls0.perBankWrBursts::10           10583                       # Per bank write bursts
system.mem_ctrls0.perBankWrBursts::11            8964                       # Per bank write bursts
system.mem_ctrls0.perBankWrBursts::12           10060                       # Per bank write bursts
system.mem_ctrls0.perBankWrBursts::13           11356                       # Per bank write bursts
system.mem_ctrls0.perBankWrBursts::14            9667                       # Per bank write bursts
system.mem_ctrls0.perBankWrBursts::15            9950                       # Per bank write bursts
system.mem_ctrls0.numRdRetry                        0                       # Number of times read queue was full causing retry
system.mem_ctrls0.numWrRetry                        0                       # Number of times write queue was full causing retry
system.mem_ctrls0.totGap                 2356554741000                       # Total gap between requests
system.mem_ctrls0.readPktSize::0                    0                       # Read request sizes (log2)
system.mem_ctrls0.readPktSize::1                    0                       # Read request sizes (log2)
system.mem_ctrls0.readPktSize::2                    0                       # Read request sizes (log2)
system.mem_ctrls0.readPktSize::3                    0                       # Read request sizes (log2)
system.mem_ctrls0.readPktSize::4                    0                       # Read request sizes (log2)
system.mem_ctrls0.readPktSize::5                    0                       # Read request sizes (log2)
system.mem_ctrls0.readPktSize::6               313945                       # Read request sizes (log2)
system.mem_ctrls0.writePktSize::0                   0                       # Write request sizes (log2)
system.mem_ctrls0.writePktSize::1                   0                       # Write request sizes (log2)
system.mem_ctrls0.writePktSize::2                   0                       # Write request sizes (log2)
system.mem_ctrls0.writePktSize::3                   0                       # Write request sizes (log2)
system.mem_ctrls0.writePktSize::4                   0                       # Write request sizes (log2)
system.mem_ctrls0.writePktSize::5                   0                       # Write request sizes (log2)
system.mem_ctrls0.writePktSize::6              154562                       # Write request sizes (log2)
system.mem_ctrls0.rdQLenPdf::0                 312943                       # What read queue length does an incoming req see
system.mem_ctrls0.rdQLenPdf::1                    277                       # What read queue length does an incoming req see
system.mem_ctrls0.rdQLenPdf::2                      1                       # What read queue length does an incoming req see
system.mem_ctrls0.rdQLenPdf::3                      0                       # What read queue length does an incoming req see
system.mem_ctrls0.rdQLenPdf::4                      0                       # What read queue length does an incoming req see
system.mem_ctrls0.rdQLenPdf::5                      0                       # What read queue length does an incoming req see
system.mem_ctrls0.rdQLenPdf::6                      0                       # What read queue length does an incoming req see
system.mem_ctrls0.rdQLenPdf::7                      0                       # What read queue length does an incoming req see
system.mem_ctrls0.rdQLenPdf::8                      0                       # What read queue length does an incoming req see
system.mem_ctrls0.rdQLenPdf::9                      0                       # What read queue length does an incoming req see
system.mem_ctrls0.rdQLenPdf::10                     0                       # What read queue length does an incoming req see
system.mem_ctrls0.rdQLenPdf::11                     0                       # What read queue length does an incoming req see
system.mem_ctrls0.rdQLenPdf::12                     0                       # What read queue length does an incoming req see
system.mem_ctrls0.rdQLenPdf::13                     0                       # What read queue length does an incoming req see
system.mem_ctrls0.rdQLenPdf::14                     0                       # What read queue length does an incoming req see
system.mem_ctrls0.rdQLenPdf::15                     0                       # What read queue length does an incoming req see
system.mem_ctrls0.rdQLenPdf::16                     0                       # What read queue length does an incoming req see
system.mem_ctrls0.rdQLenPdf::17                     0                       # What read queue length does an incoming req see
system.mem_ctrls0.rdQLenPdf::18                     0                       # What read queue length does an incoming req see
system.mem_ctrls0.rdQLenPdf::19                     0                       # What read queue length does an incoming req see
system.mem_ctrls0.rdQLenPdf::20                     0                       # What read queue length does an incoming req see
system.mem_ctrls0.rdQLenPdf::21                     0                       # What read queue length does an incoming req see
system.mem_ctrls0.rdQLenPdf::22                     0                       # What read queue length does an incoming req see
system.mem_ctrls0.rdQLenPdf::23                     0                       # What read queue length does an incoming req see
system.mem_ctrls0.rdQLenPdf::24                     0                       # What read queue length does an incoming req see
system.mem_ctrls0.rdQLenPdf::25                     0                       # What read queue length does an incoming req see
system.mem_ctrls0.rdQLenPdf::26                     0                       # What read queue length does an incoming req see
system.mem_ctrls0.rdQLenPdf::27                     0                       # What read queue length does an incoming req see
system.mem_ctrls0.rdQLenPdf::28                     0                       # What read queue length does an incoming req see
system.mem_ctrls0.rdQLenPdf::29                     0                       # What read queue length does an incoming req see
system.mem_ctrls0.rdQLenPdf::30                     0                       # What read queue length does an incoming req see
system.mem_ctrls0.rdQLenPdf::31                     0                       # What read queue length does an incoming req see
system.mem_ctrls0.wrQLenPdf::0                      0                       # What write queue length does an incoming req see
system.mem_ctrls0.wrQLenPdf::1                      0                       # What write queue length does an incoming req see
system.mem_ctrls0.wrQLenPdf::2                      0                       # What write queue length does an incoming req see
system.mem_ctrls0.wrQLenPdf::3                      0                       # What write queue length does an incoming req see
system.mem_ctrls0.wrQLenPdf::4                      0                       # What write queue length does an incoming req see
system.mem_ctrls0.wrQLenPdf::5                      0                       # What write queue length does an incoming req see
system.mem_ctrls0.wrQLenPdf::6                      0                       # What write queue length does an incoming req see
system.mem_ctrls0.wrQLenPdf::7                      0                       # What write queue length does an incoming req see
system.mem_ctrls0.wrQLenPdf::8                      0                       # What write queue length does an incoming req see
system.mem_ctrls0.wrQLenPdf::9                      0                       # What write queue length does an incoming req see
system.mem_ctrls0.wrQLenPdf::10                     0                       # What write queue length does an incoming req see
system.mem_ctrls0.wrQLenPdf::11                     0                       # What write queue length does an incoming req see
system.mem_ctrls0.wrQLenPdf::12                     0                       # What write queue length does an incoming req see
system.mem_ctrls0.wrQLenPdf::13                     0                       # What write queue length does an incoming req see
system.mem_ctrls0.wrQLenPdf::14                     0                       # What write queue length does an incoming req see
system.mem_ctrls0.wrQLenPdf::15                   368                       # What write queue length does an incoming req see
system.mem_ctrls0.wrQLenPdf::16                   370                       # What write queue length does an incoming req see
system.mem_ctrls0.wrQLenPdf::17                  9603                       # What write queue length does an incoming req see
system.mem_ctrls0.wrQLenPdf::18                  9614                       # What write queue length does an incoming req see
system.mem_ctrls0.wrQLenPdf::19                  9612                       # What write queue length does an incoming req see
system.mem_ctrls0.wrQLenPdf::20                  9614                       # What write queue length does an incoming req see
system.mem_ctrls0.wrQLenPdf::21                  9612                       # What write queue length does an incoming req see
system.mem_ctrls0.wrQLenPdf::22                  9616                       # What write queue length does an incoming req see
system.mem_ctrls0.wrQLenPdf::23                  9612                       # What write queue length does an incoming req see
system.mem_ctrls0.wrQLenPdf::24                  9613                       # What write queue length does an incoming req see
system.mem_ctrls0.wrQLenPdf::25                  9614                       # What write queue length does an incoming req see
system.mem_ctrls0.wrQLenPdf::26                  9613                       # What write queue length does an incoming req see
system.mem_ctrls0.wrQLenPdf::27                  9612                       # What write queue length does an incoming req see
system.mem_ctrls0.wrQLenPdf::28                  9612                       # What write queue length does an incoming req see
system.mem_ctrls0.wrQLenPdf::29                  9612                       # What write queue length does an incoming req see
system.mem_ctrls0.wrQLenPdf::30                  9611                       # What write queue length does an incoming req see
system.mem_ctrls0.wrQLenPdf::31                  9611                       # What write queue length does an incoming req see
system.mem_ctrls0.wrQLenPdf::32                  9611                       # What write queue length does an incoming req see
system.mem_ctrls0.wrQLenPdf::33                     0                       # What write queue length does an incoming req see
system.mem_ctrls0.wrQLenPdf::34                     0                       # What write queue length does an incoming req see
system.mem_ctrls0.wrQLenPdf::35                     0                       # What write queue length does an incoming req see
system.mem_ctrls0.wrQLenPdf::36                     0                       # What write queue length does an incoming req see
system.mem_ctrls0.wrQLenPdf::37                     0                       # What write queue length does an incoming req see
system.mem_ctrls0.wrQLenPdf::38                     0                       # What write queue length does an incoming req see
system.mem_ctrls0.wrQLenPdf::39                     0                       # What write queue length does an incoming req see
system.mem_ctrls0.wrQLenPdf::40                     0                       # What write queue length does an incoming req see
system.mem_ctrls0.wrQLenPdf::41                     0                       # What write queue length does an incoming req see
system.mem_ctrls0.wrQLenPdf::42                     0                       # What write queue length does an incoming req see
system.mem_ctrls0.wrQLenPdf::43                     0                       # What write queue length does an incoming req see
system.mem_ctrls0.wrQLenPdf::44                     0                       # What write queue length does an incoming req see
system.mem_ctrls0.wrQLenPdf::45                     0                       # What write queue length does an incoming req see
system.mem_ctrls0.wrQLenPdf::46                     0                       # What write queue length does an incoming req see
system.mem_ctrls0.wrQLenPdf::47                     0                       # What write queue length does an incoming req see
system.mem_ctrls0.wrQLenPdf::48                     0                       # What write queue length does an incoming req see
system.mem_ctrls0.wrQLenPdf::49                     0                       # What write queue length does an incoming req see
system.mem_ctrls0.wrQLenPdf::50                     0                       # What write queue length does an incoming req see
system.mem_ctrls0.wrQLenPdf::51                     0                       # What write queue length does an incoming req see
system.mem_ctrls0.wrQLenPdf::52                     0                       # What write queue length does an incoming req see
system.mem_ctrls0.wrQLenPdf::53                     0                       # What write queue length does an incoming req see
system.mem_ctrls0.wrQLenPdf::54                     0                       # What write queue length does an incoming req see
system.mem_ctrls0.wrQLenPdf::55                     0                       # What write queue length does an incoming req see
system.mem_ctrls0.wrQLenPdf::56                     0                       # What write queue length does an incoming req see
system.mem_ctrls0.wrQLenPdf::57                     0                       # What write queue length does an incoming req see
system.mem_ctrls0.wrQLenPdf::58                     0                       # What write queue length does an incoming req see
system.mem_ctrls0.wrQLenPdf::59                     0                       # What write queue length does an incoming req see
system.mem_ctrls0.wrQLenPdf::60                     0                       # What write queue length does an incoming req see
system.mem_ctrls0.wrQLenPdf::61                     0                       # What write queue length does an incoming req see
system.mem_ctrls0.wrQLenPdf::62                     0                       # What write queue length does an incoming req see
system.mem_ctrls0.wrQLenPdf::63                     0                       # What write queue length does an incoming req see
system.mem_ctrls0.bytesPerActivate::samples       202964                       # Bytes accessed per row activation
system.mem_ctrls0.bytesPerActivate::mean   147.492876                       # Bytes accessed per row activation
system.mem_ctrls0.bytesPerActivate::gmean   106.555200                       # Bytes accessed per row activation
system.mem_ctrls0.bytesPerActivate::stdev   160.365802                       # Bytes accessed per row activation
system.mem_ctrls0.bytesPerActivate::0-127       115241     56.78%     56.78% # Bytes accessed per row activation
system.mem_ctrls0.bytesPerActivate::128-255        57245     28.20%     84.98% # Bytes accessed per row activation
system.mem_ctrls0.bytesPerActivate::256-383        11689      5.76%     90.74% # Bytes accessed per row activation
system.mem_ctrls0.bytesPerActivate::384-511         5901      2.91%     93.65% # Bytes accessed per row activation
system.mem_ctrls0.bytesPerActivate::512-639         4713      2.32%     95.97% # Bytes accessed per row activation
system.mem_ctrls0.bytesPerActivate::640-767         4366      2.15%     98.12% # Bytes accessed per row activation
system.mem_ctrls0.bytesPerActivate::768-895         2874      1.42%     99.54% # Bytes accessed per row activation
system.mem_ctrls0.bytesPerActivate::896-1023          618      0.30%     99.84% # Bytes accessed per row activation
system.mem_ctrls0.bytesPerActivate::1024-1151          317      0.16%    100.00% # Bytes accessed per row activation
system.mem_ctrls0.bytesPerActivate::total       202964                       # Bytes accessed per row activation
system.mem_ctrls0.rdPerTurnAround::samples         9611                       # Reads before turning the bus around for writes
system.mem_ctrls0.rdPerTurnAround::mean     32.587452                       # Reads before turning the bus around for writes
system.mem_ctrls0.rdPerTurnAround::gmean    27.035266                       # Reads before turning the bus around for writes
system.mem_ctrls0.rdPerTurnAround::stdev    44.486665                       # Reads before turning the bus around for writes
system.mem_ctrls0.rdPerTurnAround::0-127         9462     98.45%     98.45% # Reads before turning the bus around for writes
system.mem_ctrls0.rdPerTurnAround::128-255          125      1.30%     99.75% # Reads before turning the bus around for writes
system.mem_ctrls0.rdPerTurnAround::256-383           20      0.21%     99.96% # Reads before turning the bus around for writes
system.mem_ctrls0.rdPerTurnAround::512-639            2      0.02%     99.98% # Reads before turning the bus around for writes
system.mem_ctrls0.rdPerTurnAround::1792-1919            1      0.01%     99.99% # Reads before turning the bus around for writes
system.mem_ctrls0.rdPerTurnAround::2688-2815            1      0.01%    100.00% # Reads before turning the bus around for writes
system.mem_ctrls0.rdPerTurnAround::total         9611                       # Reads before turning the bus around for writes
system.mem_ctrls0.wrPerTurnAround::samples         9611                       # Writes before turning the bus around for reads
system.mem_ctrls0.wrPerTurnAround::mean     16.077099                       # Writes before turning the bus around for reads
system.mem_ctrls0.wrPerTurnAround::gmean    16.072770                       # Writes before turning the bus around for reads
system.mem_ctrls0.wrPerTurnAround::stdev     0.387348                       # Writes before turning the bus around for reads
system.mem_ctrls0.wrPerTurnAround::16            9242     96.16%     96.16% # Writes before turning the bus around for reads
system.mem_ctrls0.wrPerTurnAround::17               1      0.01%     96.17% # Writes before turning the bus around for reads
system.mem_ctrls0.wrPerTurnAround::18             366      3.81%     99.98% # Writes before turning the bus around for reads
system.mem_ctrls0.wrPerTurnAround::19               1      0.01%     99.99% # Writes before turning the bus around for reads
system.mem_ctrls0.wrPerTurnAround::21               1      0.01%    100.00% # Writes before turning the bus around for reads
system.mem_ctrls0.wrPerTurnAround::total         9611                       # Writes before turning the bus around for reads
system.mem_ctrls0.totQLat                  3897516996                       # Total ticks spent queuing
system.mem_ctrls0.totMemAccLat             9770410746                       # Total ticks spent from burst creation until serviced by the DRAM
system.mem_ctrls0.totBusLat                1566105000                       # Total ticks spent in databus transfers
system.mem_ctrls0.avgQLat                    12443.35                       # Average queueing delay per DRAM burst
system.mem_ctrls0.avgBusLat                   5000.00                       # Average bus latency per DRAM burst
system.mem_ctrls0.avgMemAccLat               31193.35                       # Average memory access latency per DRAM burst
system.mem_ctrls0.avgRdBW                        8.51                       # Average DRAM read bandwidth in MiByte/s
system.mem_ctrls0.avgWrBW                        4.20                       # Average achieved write bandwidth in MiByte/s
system.mem_ctrls0.avgRdBWSys                     8.53                       # Average system read bandwidth in MiByte/s
system.mem_ctrls0.avgWrBWSys                     4.20                       # Average system write bandwidth in MiByte/s
system.mem_ctrls0.peakBW                     12800.00                       # Theoretical peak bandwidth in MiByte/s
system.mem_ctrls0.busUtil                        0.10                       # Data bus utilization in percentage
system.mem_ctrls0.busUtilRead                    0.07                       # Data bus utilization in percentage for reads
system.mem_ctrls0.busUtilWrite                   0.03                       # Data bus utilization in percentage for writes
system.mem_ctrls0.avgRdQLen                      1.00                       # Average read queue length when enqueuing
system.mem_ctrls0.avgWrQLen                     25.45                       # Average write queue length when enqueuing
system.mem_ctrls0.readRowHits                  197988                       # Number of row buffer hits during reads
system.mem_ctrls0.writeRowHits                  66792                       # Number of row buffer hits during writes
system.mem_ctrls0.readRowHitRate                63.21                       # Row buffer hit rate for reads
system.mem_ctrls0.writeRowHitRate               43.22                       # Row buffer hit rate for writes
system.mem_ctrls0.avgGap                   5029924.29                       # Average gap between requests
system.mem_ctrls0.pageHitRate                   56.61                       # Row buffer hit rate, read and write combined
system.mem_ctrls0_0.actEnergy               750466080                       # Energy for activate commands per rank (pJ)
system.mem_ctrls0_0.preEnergy               409480500                       # Energy for precharge commands per rank (pJ)
system.mem_ctrls0_0.readEnergy             1202939400                       # Energy for read commands per rank (pJ)
system.mem_ctrls0_0.writeEnergy             491443200                       # Energy for write commands per rank (pJ)
system.mem_ctrls0_0.refreshEnergy        154661741520                       # Energy for refresh commands per rank (pJ)
system.mem_ctrls0_0.actBackEnergy        198987533235                       # Energy for active background per rank (pJ)
system.mem_ctrls0_0.preBackEnergy        1246208274750                       # Energy for precharge background per rank (pJ)
system.mem_ctrls0_0.totalEnergy          1602711878685                       # Total energy per rank (pJ)
system.mem_ctrls0_0.averagePower           676.840549                       # Core power per rank (mW)
system.mem_ctrls0_0.memoryStateTime::IDLE 2065555672501                       # Time in different power states
system.mem_ctrls0_0.memoryStateTime::REF  78690560000                       # Time in different power states
system.mem_ctrls0_0.memoryStateTime::PRE_PDN            0                       # Time in different power states
system.mem_ctrls0_0.memoryStateTime::ACT 212316396249                       # Time in different power states
system.mem_ctrls0_0.memoryStateTime::ACT_PDN            0                       # Time in different power states
system.mem_ctrls0_1.actEnergy               814680720                       # Energy for activate commands per rank (pJ)
system.mem_ctrls0_1.preEnergy               444518250                       # Energy for precharge commands per rank (pJ)
system.mem_ctrls0_1.readEnergy             1316421600                       # Energy for read commands per rank (pJ)
system.mem_ctrls0_1.writeEnergy             520531920                       # Energy for write commands per rank (pJ)
system.mem_ctrls0_1.refreshEnergy        154661741520                       # Energy for refresh commands per rank (pJ)
system.mem_ctrls0_1.actBackEnergy        216675189270                       # Energy for active background per rank (pJ)
system.mem_ctrls0_1.preBackEnergy        1230692795250                       # Energy for precharge background per rank (pJ)
system.mem_ctrls0_1.totalEnergy          1605125878530                       # Total energy per rank (pJ)
system.mem_ctrls0_1.averagePower           677.860000                       # Core power per rank (mW)
system.mem_ctrls0_1.memoryStateTime::IDLE 2040278875500                       # Time in different power states
system.mem_ctrls0_1.memoryStateTime::REF  78690560000                       # Time in different power states
system.mem_ctrls0_1.memoryStateTime::PRE_PDN            0                       # Time in different power states
system.mem_ctrls0_1.memoryStateTime::ACT 237592961500                       # Time in different power states
system.mem_ctrls0_1.memoryStateTime::ACT_PDN            0                       # Time in different power states
system.mem_ctrls1.bytes_read::ruby.dir_cntrl1     21595264                       # Number of bytes read from this memory
system.mem_ctrls1.bytes_read::total          21595264                       # Number of bytes read from this memory
system.mem_ctrls1.bytes_written::ruby.dir_cntrl1     13847040                       # Number of bytes written to this memory
system.mem_ctrls1.bytes_written::total       13847040                       # Number of bytes written to this memory
system.mem_ctrls1.num_reads::ruby.dir_cntrl1       337426                       # Number of read requests responded to by this memory
system.mem_ctrls1.num_reads::total             337426                       # Number of read requests responded to by this memory
system.mem_ctrls1.num_writes::ruby.dir_cntrl1       216360                       # Number of write requests responded to by this memory
system.mem_ctrls1.num_writes::total            216360                       # Number of write requests responded to by this memory
system.mem_ctrls1.bw_read::ruby.dir_cntrl1      9163885                       # Total read bandwidth from this memory (bytes/s)
system.mem_ctrls1.bw_read::total              9163885                       # Total read bandwidth from this memory (bytes/s)
system.mem_ctrls1.bw_write::ruby.dir_cntrl1      5875950                       # Write bandwidth from this memory (bytes/s)
system.mem_ctrls1.bw_write::total             5875950                       # Write bandwidth from this memory (bytes/s)
system.mem_ctrls1.bw_total::ruby.dir_cntrl1     15039835                       # Total bandwidth to/from this memory (bytes/s)
system.mem_ctrls1.bw_total::total            15039835                       # Total bandwidth to/from this memory (bytes/s)
system.mem_ctrls1.readReqs                     337426                       # Number of read requests accepted
system.mem_ctrls1.writeReqs                    216360                       # Number of write requests accepted
system.mem_ctrls1.readBursts                   337426                       # Number of DRAM read bursts, including those serviced by the write queue
system.mem_ctrls1.writeBursts                  216360                       # Number of DRAM write bursts, including those merged in the write queue
system.mem_ctrls1.bytesReadDRAM              21572032                       # Total number of bytes read from DRAM
system.mem_ctrls1.bytesReadWrQ                  23232                       # Total number of bytes read from write queue
system.mem_ctrls1.bytesWritten               13846464                       # Total number of bytes written to DRAM
system.mem_ctrls1.bytesReadSys               21595264                       # Total read bytes from the system interface side
system.mem_ctrls1.bytesWrittenSys            13847040                       # Total written bytes from the system interface side
system.mem_ctrls1.servicedByWrQ                   363                       # Number of DRAM read bursts serviced by the write queue
system.mem_ctrls1.mergedWrBursts                    7                       # Number of DRAM write bursts merged with an existing one
system.mem_ctrls1.neitherReadNorWriteReqs            0                       # Number of requests that are neither read nor write
system.mem_ctrls1.perBankRdBursts::0            22694                       # Per bank write bursts
system.mem_ctrls1.perBankRdBursts::1            19675                       # Per bank write bursts
system.mem_ctrls1.perBankRdBursts::2            18049                       # Per bank write bursts
system.mem_ctrls1.perBankRdBursts::3            20170                       # Per bank write bursts
system.mem_ctrls1.perBankRdBursts::4            19145                       # Per bank write bursts
system.mem_ctrls1.perBankRdBursts::5            18224                       # Per bank write bursts
system.mem_ctrls1.perBankRdBursts::6            21181                       # Per bank write bursts
system.mem_ctrls1.perBankRdBursts::7            22581                       # Per bank write bursts
system.mem_ctrls1.perBankRdBursts::8            19868                       # Per bank write bursts
system.mem_ctrls1.perBankRdBursts::9            21594                       # Per bank write bursts
system.mem_ctrls1.perBankRdBursts::10           22557                       # Per bank write bursts
system.mem_ctrls1.perBankRdBursts::11           21134                       # Per bank write bursts
system.mem_ctrls1.perBankRdBursts::12           22687                       # Per bank write bursts
system.mem_ctrls1.perBankRdBursts::13           24568                       # Per bank write bursts
system.mem_ctrls1.perBankRdBursts::14           21364                       # Per bank write bursts
system.mem_ctrls1.perBankRdBursts::15           21572                       # Per bank write bursts
system.mem_ctrls1.perBankWrBursts::0            14913                       # Per bank write bursts
system.mem_ctrls1.perBankWrBursts::1            13126                       # Per bank write bursts
system.mem_ctrls1.perBankWrBursts::2            12374                       # Per bank write bursts
system.mem_ctrls1.perBankWrBursts::3            13263                       # Per bank write bursts
system.mem_ctrls1.perBankWrBursts::4            12430                       # Per bank write bursts
system.mem_ctrls1.perBankWrBursts::5            11951                       # Per bank write bursts
system.mem_ctrls1.perBankWrBursts::6            13627                       # Per bank write bursts
system.mem_ctrls1.perBankWrBursts::7            14205                       # Per bank write bursts
system.mem_ctrls1.perBankWrBursts::8            12826                       # Per bank write bursts
system.mem_ctrls1.perBankWrBursts::9            14087                       # Per bank write bursts
system.mem_ctrls1.perBankWrBursts::10           14383                       # Per bank write bursts
system.mem_ctrls1.perBankWrBursts::11           12974                       # Per bank write bursts
system.mem_ctrls1.perBankWrBursts::12           13982                       # Per bank write bursts
system.mem_ctrls1.perBankWrBursts::13           14941                       # Per bank write bursts
system.mem_ctrls1.perBankWrBursts::14           13408                       # Per bank write bursts
system.mem_ctrls1.perBankWrBursts::15           13861                       # Per bank write bursts
system.mem_ctrls1.numRdRetry                        0                       # Number of times read queue was full causing retry
system.mem_ctrls1.numWrRetry                        0                       # Number of times write queue was full causing retry
system.mem_ctrls1.totGap                 2356561835000                       # Total gap between requests
system.mem_ctrls1.readPktSize::0                    0                       # Read request sizes (log2)
system.mem_ctrls1.readPktSize::1                    0                       # Read request sizes (log2)
system.mem_ctrls1.readPktSize::2                    0                       # Read request sizes (log2)
system.mem_ctrls1.readPktSize::3                    0                       # Read request sizes (log2)
system.mem_ctrls1.readPktSize::4                    0                       # Read request sizes (log2)
system.mem_ctrls1.readPktSize::5                    0                       # Read request sizes (log2)
system.mem_ctrls1.readPktSize::6               337426                       # Read request sizes (log2)
system.mem_ctrls1.writePktSize::0                   0                       # Write request sizes (log2)
system.mem_ctrls1.writePktSize::1                   0                       # Write request sizes (log2)
system.mem_ctrls1.writePktSize::2                   0                       # Write request sizes (log2)
system.mem_ctrls1.writePktSize::3                   0                       # Write request sizes (log2)
system.mem_ctrls1.writePktSize::4                   0                       # Write request sizes (log2)
system.mem_ctrls1.writePktSize::5                   0                       # Write request sizes (log2)
system.mem_ctrls1.writePktSize::6              216360                       # Write request sizes (log2)
system.mem_ctrls1.rdQLenPdf::0                 336715                       # What read queue length does an incoming req see
system.mem_ctrls1.rdQLenPdf::1                    347                       # What read queue length does an incoming req see
system.mem_ctrls1.rdQLenPdf::2                      1                       # What read queue length does an incoming req see
system.mem_ctrls1.rdQLenPdf::3                      0                       # What read queue length does an incoming req see
system.mem_ctrls1.rdQLenPdf::4                      0                       # What read queue length does an incoming req see
system.mem_ctrls1.rdQLenPdf::5                      0                       # What read queue length does an incoming req see
system.mem_ctrls1.rdQLenPdf::6                      0                       # What read queue length does an incoming req see
system.mem_ctrls1.rdQLenPdf::7                      0                       # What read queue length does an incoming req see
system.mem_ctrls1.rdQLenPdf::8                      0                       # What read queue length does an incoming req see
system.mem_ctrls1.rdQLenPdf::9                      0                       # What read queue length does an incoming req see
system.mem_ctrls1.rdQLenPdf::10                     0                       # What read queue length does an incoming req see
system.mem_ctrls1.rdQLenPdf::11                     0                       # What read queue length does an incoming req see
system.mem_ctrls1.rdQLenPdf::12                     0                       # What read queue length does an incoming req see
system.mem_ctrls1.rdQLenPdf::13                     0                       # What read queue length does an incoming req see
system.mem_ctrls1.rdQLenPdf::14                     0                       # What read queue length does an incoming req see
system.mem_ctrls1.rdQLenPdf::15                     0                       # What read queue length does an incoming req see
system.mem_ctrls1.rdQLenPdf::16                     0                       # What read queue length does an incoming req see
system.mem_ctrls1.rdQLenPdf::17                     0                       # What read queue length does an incoming req see
system.mem_ctrls1.rdQLenPdf::18                     0                       # What read queue length does an incoming req see
system.mem_ctrls1.rdQLenPdf::19                     0                       # What read queue length does an incoming req see
system.mem_ctrls1.rdQLenPdf::20                     0                       # What read queue length does an incoming req see
system.mem_ctrls1.rdQLenPdf::21                     0                       # What read queue length does an incoming req see
system.mem_ctrls1.rdQLenPdf::22                     0                       # What read queue length does an incoming req see
system.mem_ctrls1.rdQLenPdf::23                     0                       # What read queue length does an incoming req see
system.mem_ctrls1.rdQLenPdf::24                     0                       # What read queue length does an incoming req see
system.mem_ctrls1.rdQLenPdf::25                     0                       # What read queue length does an incoming req see
system.mem_ctrls1.rdQLenPdf::26                     0                       # What read queue length does an incoming req see
system.mem_ctrls1.rdQLenPdf::27                     0                       # What read queue length does an incoming req see
system.mem_ctrls1.rdQLenPdf::28                     0                       # What read queue length does an incoming req see
system.mem_ctrls1.rdQLenPdf::29                     0                       # What read queue length does an incoming req see
system.mem_ctrls1.rdQLenPdf::30                     0                       # What read queue length does an incoming req see
system.mem_ctrls1.rdQLenPdf::31                     0                       # What read queue length does an incoming req see
system.mem_ctrls1.wrQLenPdf::0                      0                       # What write queue length does an incoming req see
system.mem_ctrls1.wrQLenPdf::1                      0                       # What write queue length does an incoming req see
system.mem_ctrls1.wrQLenPdf::2                      0                       # What write queue length does an incoming req see
system.mem_ctrls1.wrQLenPdf::3                      0                       # What write queue length does an incoming req see
system.mem_ctrls1.wrQLenPdf::4                      0                       # What write queue length does an incoming req see
system.mem_ctrls1.wrQLenPdf::5                      0                       # What write queue length does an incoming req see
system.mem_ctrls1.wrQLenPdf::6                      0                       # What write queue length does an incoming req see
system.mem_ctrls1.wrQLenPdf::7                      0                       # What write queue length does an incoming req see
system.mem_ctrls1.wrQLenPdf::8                      0                       # What write queue length does an incoming req see
system.mem_ctrls1.wrQLenPdf::9                      0                       # What write queue length does an incoming req see
system.mem_ctrls1.wrQLenPdf::10                     0                       # What write queue length does an incoming req see
system.mem_ctrls1.wrQLenPdf::11                     0                       # What write queue length does an incoming req see
system.mem_ctrls1.wrQLenPdf::12                     0                       # What write queue length does an incoming req see
system.mem_ctrls1.wrQLenPdf::13                     0                       # What write queue length does an incoming req see
system.mem_ctrls1.wrQLenPdf::14                     0                       # What write queue length does an incoming req see
system.mem_ctrls1.wrQLenPdf::15                   377                       # What write queue length does an incoming req see
system.mem_ctrls1.wrQLenPdf::16                   380                       # What write queue length does an incoming req see
system.mem_ctrls1.wrQLenPdf::17                 13451                       # What write queue length does an incoming req see
system.mem_ctrls1.wrQLenPdf::18                 13477                       # What write queue length does an incoming req see
system.mem_ctrls1.wrQLenPdf::19                 13478                       # What write queue length does an incoming req see
system.mem_ctrls1.wrQLenPdf::20                 13475                       # What write queue length does an incoming req see
system.mem_ctrls1.wrQLenPdf::21                 13474                       # What write queue length does an incoming req see
system.mem_ctrls1.wrQLenPdf::22                 13477                       # What write queue length does an incoming req see
system.mem_ctrls1.wrQLenPdf::23                 13476                       # What write queue length does an incoming req see
system.mem_ctrls1.wrQLenPdf::24                 13476                       # What write queue length does an incoming req see
system.mem_ctrls1.wrQLenPdf::25                 13479                       # What write queue length does an incoming req see
system.mem_ctrls1.wrQLenPdf::26                 13477                       # What write queue length does an incoming req see
system.mem_ctrls1.wrQLenPdf::27                 13477                       # What write queue length does an incoming req see
system.mem_ctrls1.wrQLenPdf::28                 13479                       # What write queue length does an incoming req see
system.mem_ctrls1.wrQLenPdf::29                 13477                       # What write queue length does an incoming req see
system.mem_ctrls1.wrQLenPdf::30                 13474                       # What write queue length does an incoming req see
system.mem_ctrls1.wrQLenPdf::31                 13474                       # What write queue length does an incoming req see
system.mem_ctrls1.wrQLenPdf::32                 13474                       # What write queue length does an incoming req see
system.mem_ctrls1.wrQLenPdf::33                     1                       # What write queue length does an incoming req see
system.mem_ctrls1.wrQLenPdf::34                     0                       # What write queue length does an incoming req see
system.mem_ctrls1.wrQLenPdf::35                     0                       # What write queue length does an incoming req see
system.mem_ctrls1.wrQLenPdf::36                     0                       # What write queue length does an incoming req see
system.mem_ctrls1.wrQLenPdf::37                     0                       # What write queue length does an incoming req see
system.mem_ctrls1.wrQLenPdf::38                     0                       # What write queue length does an incoming req see
system.mem_ctrls1.wrQLenPdf::39                     0                       # What write queue length does an incoming req see
system.mem_ctrls1.wrQLenPdf::40                     0                       # What write queue length does an incoming req see
system.mem_ctrls1.wrQLenPdf::41                     0                       # What write queue length does an incoming req see
system.mem_ctrls1.wrQLenPdf::42                     0                       # What write queue length does an incoming req see
system.mem_ctrls1.wrQLenPdf::43                     0                       # What write queue length does an incoming req see
system.mem_ctrls1.wrQLenPdf::44                     0                       # What write queue length does an incoming req see
system.mem_ctrls1.wrQLenPdf::45                     0                       # What write queue length does an incoming req see
system.mem_ctrls1.wrQLenPdf::46                     0                       # What write queue length does an incoming req see
system.mem_ctrls1.wrQLenPdf::47                     0                       # What write queue length does an incoming req see
system.mem_ctrls1.wrQLenPdf::48                     0                       # What write queue length does an incoming req see
system.mem_ctrls1.wrQLenPdf::49                     0                       # What write queue length does an incoming req see
system.mem_ctrls1.wrQLenPdf::50                     0                       # What write queue length does an incoming req see
system.mem_ctrls1.wrQLenPdf::51                     0                       # What write queue length does an incoming req see
system.mem_ctrls1.wrQLenPdf::52                     0                       # What write queue length does an incoming req see
system.mem_ctrls1.wrQLenPdf::53                     0                       # What write queue length does an incoming req see
system.mem_ctrls1.wrQLenPdf::54                     0                       # What write queue length does an incoming req see
system.mem_ctrls1.wrQLenPdf::55                     0                       # What write queue length does an incoming req see
system.mem_ctrls1.wrQLenPdf::56                     0                       # What write queue length does an incoming req see
system.mem_ctrls1.wrQLenPdf::57                     0                       # What write queue length does an incoming req see
system.mem_ctrls1.wrQLenPdf::58                     0                       # What write queue length does an incoming req see
system.mem_ctrls1.wrQLenPdf::59                     0                       # What write queue length does an incoming req see
system.mem_ctrls1.wrQLenPdf::60                     0                       # What write queue length does an incoming req see
system.mem_ctrls1.wrQLenPdf::61                     0                       # What write queue length does an incoming req see
system.mem_ctrls1.wrQLenPdf::62                     0                       # What write queue length does an incoming req see
system.mem_ctrls1.wrQLenPdf::63                     0                       # What write queue length does an incoming req see
system.mem_ctrls1.bytesPerActivate::samples       224669                       # Bytes accessed per row activation
system.mem_ctrls1.bytesPerActivate::mean   157.647740                       # Bytes accessed per row activation
system.mem_ctrls1.bytesPerActivate::gmean   110.947430                       # Bytes accessed per row activation
system.mem_ctrls1.bytesPerActivate::stdev   164.517576                       # Bytes accessed per row activation
system.mem_ctrls1.bytesPerActivate::0-127       130604     58.13%     58.13% # Bytes accessed per row activation
system.mem_ctrls1.bytesPerActivate::128-255        50099     22.30%     80.43% # Bytes accessed per row activation
system.mem_ctrls1.bytesPerActivate::256-383        16639      7.41%     87.84% # Bytes accessed per row activation
system.mem_ctrls1.bytesPerActivate::384-511         9864      4.39%     92.23% # Bytes accessed per row activation
system.mem_ctrls1.bytesPerActivate::512-639        10809      4.81%     97.04% # Bytes accessed per row activation
system.mem_ctrls1.bytesPerActivate::640-767         4112      1.83%     98.87% # Bytes accessed per row activation
system.mem_ctrls1.bytesPerActivate::768-895         1868      0.83%     99.70% # Bytes accessed per row activation
system.mem_ctrls1.bytesPerActivate::896-1023          386      0.17%     99.87% # Bytes accessed per row activation
system.mem_ctrls1.bytesPerActivate::1024-1151          288      0.13%    100.00% # Bytes accessed per row activation
system.mem_ctrls1.bytesPerActivate::total       224669                       # Bytes accessed per row activation
system.mem_ctrls1.rdPerTurnAround::samples        13474                       # Reads before turning the bus around for writes
system.mem_ctrls1.rdPerTurnAround::mean     25.015808                       # Reads before turning the bus around for writes
system.mem_ctrls1.rdPerTurnAround::gmean    21.811748                       # Reads before turning the bus around for writes
system.mem_ctrls1.rdPerTurnAround::stdev    38.034958                       # Reads before turning the bus around for writes
system.mem_ctrls1.rdPerTurnAround::0-127        13339     99.00%     99.00% # Reads before turning the bus around for writes
system.mem_ctrls1.rdPerTurnAround::128-255          123      0.91%     99.91% # Reads before turning the bus around for writes
system.mem_ctrls1.rdPerTurnAround::256-383            9      0.07%     99.98% # Reads before turning the bus around for writes
system.mem_ctrls1.rdPerTurnAround::384-511            1      0.01%     99.99% # Reads before turning the bus around for writes
system.mem_ctrls1.rdPerTurnAround::2432-2559            1      0.01%     99.99% # Reads before turning the bus around for writes
system.mem_ctrls1.rdPerTurnAround::2688-2815            1      0.01%    100.00% # Reads before turning the bus around for writes
system.mem_ctrls1.rdPerTurnAround::total        13474                       # Reads before turning the bus around for writes
system.mem_ctrls1.wrPerTurnAround::samples        13474                       # Writes before turning the bus around for reads
system.mem_ctrls1.wrPerTurnAround::mean     16.056924                       # Writes before turning the bus around for reads
system.mem_ctrls1.wrPerTurnAround::gmean    16.053665                       # Writes before turning the bus around for reads
system.mem_ctrls1.wrPerTurnAround::stdev     0.336694                       # Writes before turning the bus around for reads
system.mem_ctrls1.wrPerTurnAround::16           13093     97.17%     97.17% # Writes before turning the bus around for reads
system.mem_ctrls1.wrPerTurnAround::17               1      0.01%     97.18% # Writes before turning the bus around for reads
system.mem_ctrls1.wrPerTurnAround::18             378      2.81%     99.99% # Writes before turning the bus around for reads
system.mem_ctrls1.wrPerTurnAround::19               1      0.01%     99.99% # Writes before turning the bus around for reads
system.mem_ctrls1.wrPerTurnAround::23               1      0.01%    100.00% # Writes before turning the bus around for reads
system.mem_ctrls1.wrPerTurnAround::total        13474                       # Writes before turning the bus around for reads
system.mem_ctrls1.totQLat                  4350653246                       # Total ticks spent queuing
system.mem_ctrls1.totMemAccLat            10670584496                       # Total ticks spent from burst creation until serviced by the DRAM
system.mem_ctrls1.totBusLat                1685315000                       # Total ticks spent in databus transfers
system.mem_ctrls1.avgQLat                    12907.54                       # Average queueing delay per DRAM burst
system.mem_ctrls1.avgBusLat                   5000.00                       # Average bus latency per DRAM burst
system.mem_ctrls1.avgMemAccLat               31657.54                       # Average memory access latency per DRAM burst
system.mem_ctrls1.avgRdBW                        9.15                       # Average DRAM read bandwidth in MiByte/s
system.mem_ctrls1.avgWrBW                        5.88                       # Average achieved write bandwidth in MiByte/s
system.mem_ctrls1.avgRdBWSys                     9.16                       # Average system read bandwidth in MiByte/s
system.mem_ctrls1.avgWrBWSys                     5.88                       # Average system write bandwidth in MiByte/s
system.mem_ctrls1.peakBW                     12800.00                       # Theoretical peak bandwidth in MiByte/s
system.mem_ctrls1.busUtil                        0.12                       # Data bus utilization in percentage
system.mem_ctrls1.busUtilRead                    0.07                       # Data bus utilization in percentage for reads
system.mem_ctrls1.busUtilWrite                   0.05                       # Data bus utilization in percentage for writes
system.mem_ctrls1.avgRdQLen                      1.00                       # Average read queue length when enqueuing
system.mem_ctrls1.avgWrQLen                     25.44                       # Average write queue length when enqueuing
system.mem_ctrls1.readRowHits                  228024                       # Number of row buffer hits during reads
system.mem_ctrls1.writeRowHits                 100722                       # Number of row buffer hits during writes
system.mem_ctrls1.readRowHitRate                67.65                       # Row buffer hit rate for reads
system.mem_ctrls1.writeRowHitRate               46.55                       # Row buffer hit rate for writes
system.mem_ctrls1.avgGap                   4255365.49                       # Average gap between requests
system.mem_ctrls1.pageHitRate                   59.40                       # Row buffer hit rate, read and write combined
system.mem_ctrls1_0.actEnergy               829626840                       # Energy for activate commands per rank (pJ)
system.mem_ctrls1_0.preEnergy               452673375                       # Energy for precharge commands per rank (pJ)
system.mem_ctrls1_0.readEnergy             1299737400                       # Energy for read commands per rank (pJ)
system.mem_ctrls1_0.writeEnergy             691649280                       # Energy for write commands per rank (pJ)
system.mem_ctrls1_0.refreshEnergy        154661741520                       # Energy for refresh commands per rank (pJ)
system.mem_ctrls1_0.actBackEnergy        179416795275                       # Energy for active background per rank (pJ)
system.mem_ctrls1_0.preBackEnergy        1263375597000                       # Energy for precharge background per rank (pJ)
system.mem_ctrls1_0.totalEnergy          1600727820690                       # Total energy per rank (pJ)
system.mem_ctrls1_0.averagePower           676.002658                       # Core power per rank (mW)
system.mem_ctrls1_0.memoryStateTime::IDLE 2094337545250                       # Time in different power states
system.mem_ctrls1_0.memoryStateTime::REF  78690560000                       # Time in different power states
system.mem_ctrls1_0.memoryStateTime::PRE_PDN            0                       # Time in different power states
system.mem_ctrls1_0.memoryStateTime::ACT 183534084750                       # Time in different power states
system.mem_ctrls1_0.memoryStateTime::ACT_PDN            0                       # Time in different power states
system.mem_ctrls1_1.actEnergy               899277120                       # Energy for activate commands per rank (pJ)
system.mem_ctrls1_1.preEnergy               490677000                       # Energy for precharge commands per rank (pJ)
system.mem_ctrls1_1.readEnergy             1405404000                       # Energy for read commands per rank (pJ)
system.mem_ctrls1_1.writeEnergy             720815760                       # Energy for write commands per rank (pJ)
system.mem_ctrls1_1.refreshEnergy        154661741520                       # Energy for refresh commands per rank (pJ)
system.mem_ctrls1_1.actBackEnergy        191992726935                       # Energy for active background per rank (pJ)
system.mem_ctrls1_1.preBackEnergy        1252344069750                       # Energy for precharge background per rank (pJ)
system.mem_ctrls1_1.totalEnergy          1602514712085                       # Total energy per rank (pJ)
system.mem_ctrls1_1.averagePower           676.757284                       # Core power per rank (mW)
system.mem_ctrls1_1.memoryStateTime::IDLE 2076536392251                       # Time in different power states
system.mem_ctrls1_1.memoryStateTime::REF  78690560000                       # Time in different power states
system.mem_ctrls1_1.memoryStateTime::PRE_PDN            0                       # Time in different power states
system.mem_ctrls1_1.memoryStateTime::ACT 201335840249                       # Time in different power states
system.mem_ctrls1_1.memoryStateTime::ACT_PDN            0                       # Time in different power states
system.mem_ctrls2.bytes_read::ruby.dir_cntrl2     20031232                       # Number of bytes read from this memory
system.mem_ctrls2.bytes_read::total          20031232                       # Number of bytes read from this memory
system.mem_ctrls2.bytes_written::ruby.dir_cntrl2      9831616                       # Number of bytes written to this memory
system.mem_ctrls2.bytes_written::total        9831616                       # Number of bytes written to this memory
system.mem_ctrls2.num_reads::ruby.dir_cntrl2       312988                       # Number of read requests responded to by this memory
system.mem_ctrls2.num_reads::total             312988                       # Number of read requests responded to by this memory
system.mem_ctrls2.num_writes::ruby.dir_cntrl2       153619                       # Number of write requests responded to by this memory
system.mem_ctrls2.num_writes::total            153619                       # Number of write requests responded to by this memory
system.mem_ctrls2.bw_read::ruby.dir_cntrl2      8500193                       # Total read bandwidth from this memory (bytes/s)
system.mem_ctrls2.bw_read::total              8500193                       # Total read bandwidth from this memory (bytes/s)
system.mem_ctrls2.bw_write::ruby.dir_cntrl2      4172017                       # Write bandwidth from this memory (bytes/s)
system.mem_ctrls2.bw_write::total             4172017                       # Write bandwidth from this memory (bytes/s)
system.mem_ctrls2.bw_total::ruby.dir_cntrl2     12672210                       # Total bandwidth to/from this memory (bytes/s)
system.mem_ctrls2.bw_total::total            12672210                       # Total bandwidth to/from this memory (bytes/s)
system.mem_ctrls2.readReqs                     312988                       # Number of read requests accepted
system.mem_ctrls2.writeReqs                    153619                       # Number of write requests accepted
system.mem_ctrls2.readBursts                   312988                       # Number of DRAM read bursts, including those serviced by the write queue
system.mem_ctrls2.writeBursts                  153619                       # Number of DRAM write bursts, including those merged in the write queue
system.mem_ctrls2.bytesReadDRAM              20003712                       # Total number of bytes read from DRAM
system.mem_ctrls2.bytesReadWrQ                  27520                       # Total number of bytes read from write queue
system.mem_ctrls2.bytesWritten                9831296                       # Total number of bytes written to DRAM
system.mem_ctrls2.bytesReadSys               20031232                       # Total read bytes from the system interface side
system.mem_ctrls2.bytesWrittenSys             9831616                       # Total written bytes from the system interface side
system.mem_ctrls2.servicedByWrQ                   430                       # Number of DRAM read bursts serviced by the write queue
system.mem_ctrls2.mergedWrBursts                    2                       # Number of DRAM write bursts merged with an existing one
system.mem_ctrls2.neitherReadNorWriteReqs            0                       # Number of requests that are neither read nor write
system.mem_ctrls2.perBankRdBursts::0            21767                       # Per bank write bursts
system.mem_ctrls2.perBankRdBursts::1            17813                       # Per bank write bursts
system.mem_ctrls2.perBankRdBursts::2            15827                       # Per bank write bursts
system.mem_ctrls2.perBankRdBursts::3            18899                       # Per bank write bursts
system.mem_ctrls2.perBankRdBursts::4            17426                       # Per bank write bursts
system.mem_ctrls2.perBankRdBursts::5            16226                       # Per bank write bursts
system.mem_ctrls2.perBankRdBursts::6            20238                       # Per bank write bursts
system.mem_ctrls2.perBankRdBursts::7            20843                       # Per bank write bursts
system.mem_ctrls2.perBankRdBursts::8            17384                       # Per bank write bursts
system.mem_ctrls2.perBankRdBursts::9            20163                       # Per bank write bursts
system.mem_ctrls2.perBankRdBursts::10           21881                       # Per bank write bursts
system.mem_ctrls2.perBankRdBursts::11           19495                       # Per bank write bursts
system.mem_ctrls2.perBankRdBursts::12           21276                       # Per bank write bursts
system.mem_ctrls2.perBankRdBursts::13           23819                       # Per bank write bursts
system.mem_ctrls2.perBankRdBursts::14           19602                       # Per bank write bursts
system.mem_ctrls2.perBankRdBursts::15           19899                       # Per bank write bursts
system.mem_ctrls2.perBankWrBursts::0            11240                       # Per bank write bursts
system.mem_ctrls2.perBankWrBursts::1             8797                       # Per bank write bursts
system.mem_ctrls2.perBankWrBursts::2             8086                       # Per bank write bursts
system.mem_ctrls2.perBankWrBursts::3             9436                       # Per bank write bursts
system.mem_ctrls2.perBankWrBursts::4             8505                       # Per bank write bursts
system.mem_ctrls2.perBankWrBursts::5             7950                       # Per bank write bursts
system.mem_ctrls2.perBankWrBursts::6             9775                       # Per bank write bursts
system.mem_ctrls2.perBankWrBursts::7            10326                       # Per bank write bursts
system.mem_ctrls2.perBankWrBursts::8             8771                       # Per bank write bursts
system.mem_ctrls2.perBankWrBursts::9            10132                       # Per bank write bursts
system.mem_ctrls2.perBankWrBursts::10           10665                       # Per bank write bursts
system.mem_ctrls2.perBankWrBursts::11            8988                       # Per bank write bursts
system.mem_ctrls2.perBankWrBursts::12           10031                       # Per bank write bursts
system.mem_ctrls2.perBankWrBursts::13           11253                       # Per bank write bursts
system.mem_ctrls2.perBankWrBursts::14            9613                       # Per bank write bursts
system.mem_ctrls2.perBankWrBursts::15           10046                       # Per bank write bursts
system.mem_ctrls2.numRdRetry                        0                       # Number of times read queue was full causing retry
system.mem_ctrls2.numWrRetry                        0                       # Number of times write queue was full causing retry
system.mem_ctrls2.totGap                 2356567872500                       # Total gap between requests
system.mem_ctrls2.readPktSize::0                    0                       # Read request sizes (log2)
system.mem_ctrls2.readPktSize::1                    0                       # Read request sizes (log2)
system.mem_ctrls2.readPktSize::2                    0                       # Read request sizes (log2)
system.mem_ctrls2.readPktSize::3                    0                       # Read request sizes (log2)
system.mem_ctrls2.readPktSize::4                    0                       # Read request sizes (log2)
system.mem_ctrls2.readPktSize::5                    0                       # Read request sizes (log2)
system.mem_ctrls2.readPktSize::6               312988                       # Read request sizes (log2)
system.mem_ctrls2.writePktSize::0                   0                       # Write request sizes (log2)
system.mem_ctrls2.writePktSize::1                   0                       # Write request sizes (log2)
system.mem_ctrls2.writePktSize::2                   0                       # Write request sizes (log2)
system.mem_ctrls2.writePktSize::3                   0                       # Write request sizes (log2)
system.mem_ctrls2.writePktSize::4                   0                       # Write request sizes (log2)
system.mem_ctrls2.writePktSize::5                   0                       # Write request sizes (log2)
system.mem_ctrls2.writePktSize::6              153619                       # Write request sizes (log2)
system.mem_ctrls2.rdQLenPdf::0                 312283                       # What read queue length does an incoming req see
system.mem_ctrls2.rdQLenPdf::1                    274                       # What read queue length does an incoming req see
system.mem_ctrls2.rdQLenPdf::2                      1                       # What read queue length does an incoming req see
system.mem_ctrls2.rdQLenPdf::3                      0                       # What read queue length does an incoming req see
system.mem_ctrls2.rdQLenPdf::4                      0                       # What read queue length does an incoming req see
system.mem_ctrls2.rdQLenPdf::5                      0                       # What read queue length does an incoming req see
system.mem_ctrls2.rdQLenPdf::6                      0                       # What read queue length does an incoming req see
system.mem_ctrls2.rdQLenPdf::7                      0                       # What read queue length does an incoming req see
system.mem_ctrls2.rdQLenPdf::8                      0                       # What read queue length does an incoming req see
system.mem_ctrls2.rdQLenPdf::9                      0                       # What read queue length does an incoming req see
system.mem_ctrls2.rdQLenPdf::10                     0                       # What read queue length does an incoming req see
system.mem_ctrls2.rdQLenPdf::11                     0                       # What read queue length does an incoming req see
system.mem_ctrls2.rdQLenPdf::12                     0                       # What read queue length does an incoming req see
system.mem_ctrls2.rdQLenPdf::13                     0                       # What read queue length does an incoming req see
system.mem_ctrls2.rdQLenPdf::14                     0                       # What read queue length does an incoming req see
system.mem_ctrls2.rdQLenPdf::15                     0                       # What read queue length does an incoming req see
system.mem_ctrls2.rdQLenPdf::16                     0                       # What read queue length does an incoming req see
system.mem_ctrls2.rdQLenPdf::17                     0                       # What read queue length does an incoming req see
system.mem_ctrls2.rdQLenPdf::18                     0                       # What read queue length does an incoming req see
system.mem_ctrls2.rdQLenPdf::19                     0                       # What read queue length does an incoming req see
system.mem_ctrls2.rdQLenPdf::20                     0                       # What read queue length does an incoming req see
system.mem_ctrls2.rdQLenPdf::21                     0                       # What read queue length does an incoming req see
system.mem_ctrls2.rdQLenPdf::22                     0                       # What read queue length does an incoming req see
system.mem_ctrls2.rdQLenPdf::23                     0                       # What read queue length does an incoming req see
system.mem_ctrls2.rdQLenPdf::24                     0                       # What read queue length does an incoming req see
system.mem_ctrls2.rdQLenPdf::25                     0                       # What read queue length does an incoming req see
system.mem_ctrls2.rdQLenPdf::26                     0                       # What read queue length does an incoming req see
system.mem_ctrls2.rdQLenPdf::27                     0                       # What read queue length does an incoming req see
system.mem_ctrls2.rdQLenPdf::28                     0                       # What read queue length does an incoming req see
system.mem_ctrls2.rdQLenPdf::29                     0                       # What read queue length does an incoming req see
system.mem_ctrls2.rdQLenPdf::30                     0                       # What read queue length does an incoming req see
system.mem_ctrls2.rdQLenPdf::31                     0                       # What read queue length does an incoming req see
system.mem_ctrls2.wrQLenPdf::0                      0                       # What write queue length does an incoming req see
system.mem_ctrls2.wrQLenPdf::1                      0                       # What write queue length does an incoming req see
system.mem_ctrls2.wrQLenPdf::2                      0                       # What write queue length does an incoming req see
system.mem_ctrls2.wrQLenPdf::3                      0                       # What write queue length does an incoming req see
system.mem_ctrls2.wrQLenPdf::4                      0                       # What write queue length does an incoming req see
system.mem_ctrls2.wrQLenPdf::5                      0                       # What write queue length does an incoming req see
system.mem_ctrls2.wrQLenPdf::6                      0                       # What write queue length does an incoming req see
system.mem_ctrls2.wrQLenPdf::7                      0                       # What write queue length does an incoming req see
system.mem_ctrls2.wrQLenPdf::8                      0                       # What write queue length does an incoming req see
system.mem_ctrls2.wrQLenPdf::9                      0                       # What write queue length does an incoming req see
system.mem_ctrls2.wrQLenPdf::10                     0                       # What write queue length does an incoming req see
system.mem_ctrls2.wrQLenPdf::11                     0                       # What write queue length does an incoming req see
system.mem_ctrls2.wrQLenPdf::12                     0                       # What write queue length does an incoming req see
system.mem_ctrls2.wrQLenPdf::13                     0                       # What write queue length does an incoming req see
system.mem_ctrls2.wrQLenPdf::14                     0                       # What write queue length does an incoming req see
system.mem_ctrls2.wrQLenPdf::15                   311                       # What write queue length does an incoming req see
system.mem_ctrls2.wrQLenPdf::16                   311                       # What write queue length does an incoming req see
system.mem_ctrls2.wrQLenPdf::17                  9544                       # What write queue length does an incoming req see
system.mem_ctrls2.wrQLenPdf::18                  9565                       # What write queue length does an incoming req see
system.mem_ctrls2.wrQLenPdf::19                  9563                       # What write queue length does an incoming req see
system.mem_ctrls2.wrQLenPdf::20                  9563                       # What write queue length does an incoming req see
system.mem_ctrls2.wrQLenPdf::21                  9564                       # What write queue length does an incoming req see
system.mem_ctrls2.wrQLenPdf::22                  9565                       # What write queue length does an incoming req see
system.mem_ctrls2.wrQLenPdf::23                  9565                       # What write queue length does an incoming req see
system.mem_ctrls2.wrQLenPdf::24                  9564                       # What write queue length does an incoming req see
system.mem_ctrls2.wrQLenPdf::25                  9563                       # What write queue length does an incoming req see
system.mem_ctrls2.wrQLenPdf::26                  9564                       # What write queue length does an incoming req see
system.mem_ctrls2.wrQLenPdf::27                  9564                       # What write queue length does an incoming req see
system.mem_ctrls2.wrQLenPdf::28                  9562                       # What write queue length does an incoming req see
system.mem_ctrls2.wrQLenPdf::29                  9563                       # What write queue length does an incoming req see
system.mem_ctrls2.wrQLenPdf::30                  9562                       # What write queue length does an incoming req see
system.mem_ctrls2.wrQLenPdf::31                  9562                       # What write queue length does an incoming req see
system.mem_ctrls2.wrQLenPdf::32                  9562                       # What write queue length does an incoming req see
system.mem_ctrls2.wrQLenPdf::33                     0                       # What write queue length does an incoming req see
system.mem_ctrls2.wrQLenPdf::34                     0                       # What write queue length does an incoming req see
system.mem_ctrls2.wrQLenPdf::35                     0                       # What write queue length does an incoming req see
system.mem_ctrls2.wrQLenPdf::36                     0                       # What write queue length does an incoming req see
system.mem_ctrls2.wrQLenPdf::37                     0                       # What write queue length does an incoming req see
system.mem_ctrls2.wrQLenPdf::38                     0                       # What write queue length does an incoming req see
[...]
system.ruby.DMA_Controller.Data          |       22973    100.00%    100.00% |           0      0.00%    100.00%
system.ruby.DMA_Controller.Data::total          22973                      
system.ruby.DMA_Controller.Ack           |         128    100.00%    100.00% |           0      0.00%    100.00%
system.ruby.DMA_Controller.Ack::total             128                      
system.ruby.DMA_Controller.READY.ReadRequest |       22973    100.00%    100.00% |           0      0.00%    100.00%
system.ruby.DMA_Controller.READY.ReadRequest::total        22973                      
system.ruby.DMA_Controller.READY.WriteRequest |         128    100.00%    100.00% |           0      0.00%    100.00%
system.ruby.DMA_Controller.READY.WriteRequest::total          128                      
system.ruby.DMA_Controller.BUSY_RD.Data  |       22973    100.00%    100.00% |           0      0.00%    100.00%
system.ruby.DMA_Controller.BUSY_RD.Data::total        22973                      
system.ruby.DMA_Controller.BUSY_WR.Ack   |         128    100.00%    100.00% |           0      0.00%    100.00%
system.ruby.DMA_Controller.BUSY_WR.Ack::total          128                      
system.ruby.L1Cache_Controller.Load      |   354334769     93.56%     93.56% |    22547859      5.95%     99.51% |      845852      0.22%     99.74% |      992228      0.26%    100.00%
system.ruby.L1Cache_Controller.Load::total    378720708                      
system.ruby.L1Cache_Controller.Ifetch    |  1865372963     94.37%     94.37% |   101747622      5.15%     99.51% |     4023978      0.20%     99.72% |     5579845      0.28%    100.00%
system.ruby.L1Cache_Controller.Ifetch::total   1976724408                      
system.ruby.L1Cache_Controller.Store     |    40083703     73.62%     73.62% |    12919194     23.73%     97.35% |      619834      1.14%     98.49% |      821826      1.51%    100.00%
system.ruby.L1Cache_Controller.Store::total     54444557                      
system.ruby.L1Cache_Controller.Inv       |       15407     14.81%     14.81% |       32863     31.59%     46.40% |       24968     24.00%     70.40% |       30794     29.60%    100.00%
system.ruby.L1Cache_Controller.Inv::total       104032                      
system.ruby.L1Cache_Controller.L1_Replacement |     2083090     77.73%     77.73% |      423002     15.78%     93.51% |       72142      2.69%     96.21% |      101671      3.79%    100.00%
system.ruby.L1Cache_Controller.L1_Replacement::total      2679905                      
system.ruby.L1Cache_Controller.Fwd_GETX  |         767     21.54%     21.54% |        1340     37.63%     59.17% |         788     22.13%     81.30% |         666     18.70%    100.00%
system.ruby.L1Cache_Controller.Fwd_GETX::total         3561                      
system.ruby.L1Cache_Controller.Fwd_GETS  |        5457     26.09%     26.09% |        5670     27.11%     53.20% |        4374     20.91%     74.11% |        5414     25.89%    100.00%
system.ruby.L1Cache_Controller.Fwd_GETS::total        20915                      
system.ruby.L1Cache_Controller.Data      |        1036     29.96%     29.96% |         753     21.78%     51.74% |        1137     32.88%     84.62% |         532     15.38%    100.00%
system.ruby.L1Cache_Controller.Data::total         3458                      
system.ruby.L1Cache_Controller.Data_Exclusive |     1525956     83.29%     83.29% |      247748     13.52%     96.81% |       15375      0.84%     97.65% |       43071      2.35%    100.00%
system.ruby.L1Cache_Controller.Data_Exclusive::total      1832150                      
system.ruby.L1Cache_Controller.DataS_fromL1 |        2242     10.72%     10.72% |        5100     24.38%     35.10% |        5908     28.25%     63.35% |        7665     36.65%    100.00%
system.ruby.L1Cache_Controller.DataS_fromL1::total        20915                      
system.ruby.L1Cache_Controller.Data_all_Acks |      560674     64.57%     64.57% |      181311     20.88%     85.45% |       63630      7.33%     92.78% |       62679      7.22%    100.00%
system.ruby.L1Cache_Controller.Data_all_Acks::total       868294                      
system.ruby.L1Cache_Controller.Ack       |       15136     49.74%     49.74% |        5658     18.59%     68.33% |        4584     15.06%     83.39% |        5054     16.61%    100.00%
system.ruby.L1Cache_Controller.Ack::total        30432                      
system.ruby.L1Cache_Controller.Ack_all   |        6685     37.39%     37.39% |        4014     22.45%     59.84% |        3667     20.51%     80.36% |        3512     19.64%    100.00%
system.ruby.L1Cache_Controller.Ack_all::total        17878                      
system.ruby.L1Cache_Controller.WB_Ack    |     2008498     83.85%     83.85% |      316208     13.20%     97.06% |       20480      0.86%     97.91% |       50048      2.09%    100.00%
system.ruby.L1Cache_Controller.WB_Ack::total      2395234                      
system.ruby.L1Cache_Controller.NP.Load   |     1541583     82.10%     82.10% |      259986     13.85%     95.95% |       24849      1.32%     97.27% |       51173      2.73%    100.00%
system.ruby.L1Cache_Controller.NP.Load::total      1877591                      
system.ruby.L1Cache_Controller.NP.Ifetch |       57379     26.05%     26.05% |       88666     40.26%     66.31% |       37120     16.85%     83.16% |       37083     16.84%    100.00%
system.ruby.L1Cache_Controller.NP.Ifetch::total       220248                      
system.ruby.L1Cache_Controller.NP.Store  |      484312     83.11%     83.11% |       74350     12.76%     95.87% |       10673      1.83%     97.70% |       13415      2.30%    100.00%
system.ruby.L1Cache_Controller.NP.Store::total       582750                      
system.ruby.L1Cache_Controller.NP.Inv    |        5760     17.07%     17.07% |       13272     39.33%     56.40% |        5010     14.85%     71.25% |        9703     28.75%    100.00%
system.ruby.L1Cache_Controller.NP.Inv::total        33745                      
system.ruby.L1Cache_Controller.I.Load    |         916      4.76%      4.76% |        5640     29.30%     34.06% |        6763     35.14%     69.20% |        5927     30.80%    100.00%
system.ruby.L1Cache_Controller.I.Load::total        19246                      
system.ruby.L1Cache_Controller.I.Ifetch  |        5372     27.63%     27.63% |        4667     24.00%     51.63% |        4815     24.76%     76.39% |        4590     23.61%    100.00%
system.ruby.L1Cache_Controller.I.Ifetch::total        19444                      
system.ruby.L1Cache_Controller.I.Store   |         346      6.25%      6.25% |        1603     28.95%     35.20% |        1830     33.05%     68.25% |        1758     31.75%    100.00%
system.ruby.L1Cache_Controller.I.Store::total         5537                      
system.ruby.L1Cache_Controller.I.L1_Replacement |        3557     12.21%     12.21% |        8680     29.79%     42.00% |        7622     26.16%     68.16% |        9276     31.84%    100.00%
system.ruby.L1Cache_Controller.I.L1_Replacement::total        29135                      
system.ruby.L1Cache_Controller.S.Load    |      385878     40.75%     40.75% |      221611     23.40%     64.16% |      155416     16.41%     80.57% |      183999     19.43%    100.00%
system.ruby.L1Cache_Controller.S.Load::total       946904                      
system.ruby.L1Cache_Controller.S.Ifetch  |  1865310210     94.38%     94.38% |   101654289      5.14%     99.52% |     3982043      0.20%     99.72% |     5538172      0.28%    100.00%
system.ruby.L1Cache_Controller.S.Ifetch::total   1976484714                      
system.ruby.L1Cache_Controller.S.Store   |        5649     39.17%     39.17% |        3261     22.61%     61.78% |        2530     17.54%     79.33% |        2981     20.67%    100.00%
system.ruby.L1Cache_Controller.S.Store::total        14421                      
system.ruby.L1Cache_Controller.S.Inv     |        8193     14.83%     14.83% |       15374     27.83%     42.66% |       15964     28.90%     71.56% |       15708     28.44%    100.00%
system.ruby.L1Cache_Controller.S.Inv::total        55239                      
system.ruby.L1Cache_Controller.S.L1_Replacement |       71035     27.80%     27.80% |       98114     38.40%     66.19% |       44040     17.23%     83.43% |       42347     16.57%    100.00%
system.ruby.L1Cache_Controller.S.L1_Replacement::total       255536                      
system.ruby.L1Cache_Controller.E.Load    |   294067726     97.59%     97.59% |     6977818      2.32%     99.90% |      131035      0.04%     99.95% |      158945      0.05%    100.00%
system.ruby.L1Cache_Controller.E.Load::total    301335524                      
system.ruby.L1Cache_Controller.E.Store   |      447974     75.35%     75.35% |      118448     19.92%     95.28% |        3844      0.65%     95.92% |       24237      4.08%    100.00%
system.ruby.L1Cache_Controller.E.Store::total       594503                      
system.ruby.L1Cache_Controller.E.Inv     |         792     14.34%     14.34% |        1428     25.86%     40.20% |        1330     24.09%     64.29% |        1972     35.71%    100.00%
system.ruby.L1Cache_Controller.E.Inv::total         5522                      
system.ruby.L1Cache_Controller.E.L1_Replacement |     1076183     88.05%     88.05% |      124722     10.20%     98.25% |        7731      0.63%     98.88% |       13661      1.12%    100.00%
system.ruby.L1Cache_Controller.E.L1_Replacement::total      1222297                      
system.ruby.L1Cache_Controller.E.Fwd_GETX |         439     28.94%     28.94% |         777     51.22%     80.16% |         115      7.58%     87.74% |         186     12.26%    100.00%
system.ruby.L1Cache_Controller.E.Fwd_GETX::total         1517                      
system.ruby.L1Cache_Controller.E.Fwd_GETS |         613      7.50%      7.50% |        2708     33.14%     40.64% |        1886     23.08%     63.73% |        2964     36.27%    100.00%
system.ruby.L1Cache_Controller.E.Fwd_GETS::total         8171                      
system.ruby.L1Cache_Controller.M.Load    |    58338666     78.26%     78.26% |    15082804     20.23%     98.50% |      527789      0.71%     99.21% |      592184      0.79%    100.00%
system.ruby.L1Cache_Controller.M.Load::total     74541443                      
system.ruby.L1Cache_Controller.M.Store   |    39145422     73.52%     73.52% |    12721532     23.89%     97.41% |      600957      1.13%     98.54% |      779435      1.46%    100.00%
system.ruby.L1Cache_Controller.M.Store::total     53247346                      
system.ruby.L1Cache_Controller.M.Inv     |         662      6.95%      6.95% |        2789     29.28%     36.23% |        2664     27.97%     64.20% |        3410     35.80%    100.00%
system.ruby.L1Cache_Controller.M.Inv::total         9525                      
system.ruby.L1Cache_Controller.M.L1_Replacement |      932315     79.49%     79.49% |      191486     16.33%     95.81% |       12749      1.09%     96.90% |       36387      3.10%    100.00%
system.ruby.L1Cache_Controller.M.L1_Replacement::total      1172937                      
system.ruby.L1Cache_Controller.M.Fwd_GETX |         328     16.05%     16.05% |         563     27.54%     43.59% |         673     32.93%     76.52% |         480     23.48%    100.00%
system.ruby.L1Cache_Controller.M.Fwd_GETX::total         2044                      
system.ruby.L1Cache_Controller.M.Fwd_GETS |        4844     38.01%     38.01% |        2962     23.24%     61.25% |        2488     19.52%     80.78% |        2450     19.22%    100.00%
system.ruby.L1Cache_Controller.M.Fwd_GETS::total        12744                      
system.ruby.L1Cache_Controller.IS.Data_Exclusive |     1525956     83.29%     83.29% |      247748     13.52%     96.81% |       15375      0.84%     97.65% |       43071      2.35%    100.00%
system.ruby.L1Cache_Controller.IS.Data_Exclusive::total      1832150                      
system.ruby.L1Cache_Controller.IS.DataS_fromL1 |        2242     10.72%     10.72% |        5100     24.38%     35.10% |        5908     28.25%     63.35% |        7665     36.65%    100.00%
system.ruby.L1Cache_Controller.IS.DataS_fromL1::total        20915                      
system.ruby.L1Cache_Controller.IS.Data_all_Acks |       77052     27.18%     27.18% |      106111     37.43%     64.62% |       52264     18.44%     83.05% |       48037     16.95%    100.00%
system.ruby.L1Cache_Controller.IS.Data_all_Acks::total       283464                      
system.ruby.L1Cache_Controller.IM.Data   |        1036     29.96%     29.96% |         753     21.78%     51.74% |        1137     32.88%     84.62% |         532     15.38%    100.00%
system.ruby.L1Cache_Controller.IM.Data::total         3458                      
system.ruby.L1Cache_Controller.IM.Data_all_Acks |      483622     82.69%     82.69% |       75200     12.86%     95.55% |       11366      1.94%     97.50% |       14642      2.50%    100.00%
system.ruby.L1Cache_Controller.IM.Data_all_Acks::total       584830                      
system.ruby.L1Cache_Controller.SM.Inv    |           0      0.00%      0.00% |           0      0.00%      0.00% |           0      0.00%      0.00% |           1    100.00%    100.00%
system.ruby.L1Cache_Controller.SM.Inv::total            1                      
system.ruby.L1Cache_Controller.SM.Ack    |       15136     49.74%     49.74% |        5658     18.59%     68.33% |        4584     15.06%     83.39% |        5054     16.61%    100.00%
system.ruby.L1Cache_Controller.SM.Ack::total        30432                      
system.ruby.L1Cache_Controller.SM.Ack_all |        6685     37.39%     37.39% |        4014     22.45%     59.84% |        3667     20.51%     80.36% |        3512     19.64%    100.00%
system.ruby.L1Cache_Controller.SM.Ack_all::total        17878                      
system.ruby.L1Cache_Controller.M_I.Ifetch |           2    100.00%    100.00% |           0      0.00%    100.00% |           0      0.00%    100.00% |           0      0.00%    100.00%
system.ruby.L1Cache_Controller.M_I.Ifetch::total            2                      
system.ruby.L1Cache_Controller.M_I.WB_Ack |     2008498     83.85%     83.85% |      316208     13.20%     97.06% |       20480      0.86%     97.91% |       50048      2.09%    100.00%
system.ruby.L1Cache_Controller.M_I.WB_Ack::total      2395234                      
system.ruby.L2Cache_Controller.L1_GET_INSTR       239692      0.00%      0.00%
system.ruby.L2Cache_Controller.L1_GETS        1896889      0.00%      0.00%
system.ruby.L2Cache_Controller.L1_GETX         588293      0.00%      0.00%
system.ruby.L2Cache_Controller.L1_UPGRADE        14421      0.00%      0.00%
system.ruby.L2Cache_Controller.L1_PUTX        2395234      0.00%      0.00%
system.ruby.L2Cache_Controller.L2_Replacement       831050      0.00%      0.00%
system.ruby.L2Cache_Controller.L2_Replacement_clean       637079      0.00%      0.00%
system.ruby.L2Cache_Controller.Mem_Data       1469886      0.00%      0.00%
system.ruby.L2Cache_Controller.Mem_Ack        1468370      0.00%      0.00%
system.ruby.L2Cache_Controller.WB_Data          22269      0.00%      0.00%
system.ruby.L2Cache_Controller.WB_Data_clean         8171      0.00%      0.00%
system.ruby.L2Cache_Controller.Ack              28416      0.00%      0.00%
system.ruby.L2Cache_Controller.Ack_all          32201      0.00%      0.00%
system.ruby.L2Cache_Controller.Unblock          20915      0.00%      0.00%
system.ruby.L2Cache_Controller.Exclusive_Unblock      2434858      0.00%      0.00%
system.ruby.L2Cache_Controller.MEM_Inv            482      0.00%      0.00%
system.ruby.L2Cache_Controller.NP.L1_GET_INSTR        26199      0.00%      0.00%
system.ruby.L2Cache_Controller.NP.L1_GETS       935276      0.00%      0.00%
system.ruby.L2Cache_Controller.NP.L1_GETX       508411      0.00%      0.00%
system.ruby.L2Cache_Controller.SS.L1_GET_INSTR       213474      0.00%      0.00%
system.ruby.L2Cache_Controller.SS.L1_GETS        43756      0.00%      0.00%
system.ruby.L2Cache_Controller.SS.L1_GETX         3458      0.00%      0.00%
system.ruby.L2Cache_Controller.SS.L1_UPGRADE        14420      0.00%      0.00%
system.ruby.L2Cache_Controller.SS.L2_Replacement          790      0.00%      0.00%
system.ruby.L2Cache_Controller.SS.L2_Replacement_clean        25889      0.00%      0.00%
system.ruby.L2Cache_Controller.M.L1_GET_INSTR           18      0.00%      0.00%
system.ruby.L2Cache_Controller.M.L1_GETS       896882      0.00%      0.00%
system.ruby.L2Cache_Controller.M.L1_GETX        72858      0.00%      0.00%
system.ruby.L2Cache_Controller.M.L2_Replacement       827830      0.00%      0.00%
system.ruby.L2Cache_Controller.M.L2_Replacement_clean       598658      0.00%      0.00%
system.ruby.L2Cache_Controller.M.MEM_Inv          156      0.00%      0.00%
system.ruby.L2Cache_Controller.MT.L1_GETS        20915      0.00%      0.00%
system.ruby.L2Cache_Controller.MT.L1_GETX         3561      0.00%      0.00%
system.ruby.L2Cache_Controller.MT.L1_PUTX      2395234      0.00%      0.00%
system.ruby.L2Cache_Controller.MT.L2_Replacement         2430      0.00%      0.00%
system.ruby.L2Cache_Controller.MT.L2_Replacement_clean        12532      0.00%      0.00%
system.ruby.L2Cache_Controller.MT.MEM_Inv           85      0.00%      0.00%
system.ruby.L2Cache_Controller.M_I.L1_GETS            3      0.00%      0.00%
system.ruby.L2Cache_Controller.M_I.L1_GETX            1      0.00%      0.00%
system.ruby.L2Cache_Controller.M_I.Mem_Ack      1468370      0.00%      0.00%
system.ruby.L2Cache_Controller.M_I.MEM_Inv          156      0.00%      0.00%
system.ruby.L2Cache_Controller.MT_I.WB_Data         1933      0.00%      0.00%
system.ruby.L2Cache_Controller.MT_I.Ack_all          582      0.00%      0.00%
system.ruby.L2Cache_Controller.MT_I.MEM_Inv           85      0.00%      0.00%
system.ruby.L2Cache_Controller.MCT_I.WB_Data         7592      0.00%      0.00%
system.ruby.L2Cache_Controller.MCT_I.Ack_all         4940      0.00%      0.00%
system.ruby.L2Cache_Controller.I_I.Ack          27406      0.00%      0.00%
system.ruby.L2Cache_Controller.I_I.Ack_all        25889      0.00%      0.00%
system.ruby.L2Cache_Controller.S_I.Ack           1010      0.00%      0.00%
system.ruby.L2Cache_Controller.S_I.Ack_all          790      0.00%      0.00%
system.ruby.L2Cache_Controller.ISS.L1_GETS            8      0.00%      0.00%
system.ruby.L2Cache_Controller.ISS.Mem_Data       935268      0.00%      0.00%
system.ruby.L2Cache_Controller.IS.L1_GET_INSTR            1      0.00%      0.00%
system.ruby.L2Cache_Controller.IS.Mem_Data        26207      0.00%      0.00%
system.ruby.L2Cache_Controller.IM.Mem_Data       508411      0.00%      0.00%
system.ruby.L2Cache_Controller.SS_MB.L1_GETS           33      0.00%      0.00%
system.ruby.L2Cache_Controller.SS_MB.L1_UPGRADE            1      0.00%      0.00%
system.ruby.L2Cache_Controller.SS_MB.Exclusive_Unblock        17878      0.00%      0.00%
system.ruby.L2Cache_Controller.MT_MB.L1_GETS           13      0.00%      0.00%
system.ruby.L2Cache_Controller.MT_MB.L1_GETX            3      0.00%      0.00%
system.ruby.L2Cache_Controller.MT_MB.Exclusive_Unblock      2416980      0.00%      0.00%
system.ruby.L2Cache_Controller.MT_IIB.L1_GETS            3      0.00%      0.00%
system.ruby.L2Cache_Controller.MT_IIB.L1_GETX            1      0.00%      0.00%
system.ruby.L2Cache_Controller.MT_IIB.WB_Data        12735      0.00%      0.00%
system.ruby.L2Cache_Controller.MT_IIB.WB_Data_clean         8158      0.00%      0.00%
system.ruby.L2Cache_Controller.MT_IIB.Unblock           22      0.00%      0.00%
system.ruby.L2Cache_Controller.MT_IB.WB_Data            9      0.00%      0.00%
system.ruby.L2Cache_Controller.MT_IB.WB_Data_clean           13      0.00%      0.00%
system.ruby.L2Cache_Controller.MT_SB.Unblock        20893      0.00%      0.00%

---------- End Simulation Statistics   ----------
