
---------- Begin Simulation Statistics ----------
sim_seconds                                  3.915391                       # Number of seconds simulated
sim_ticks                                3915390874500                       # Number of ticks simulated
final_tick                               55140510393001                       # Number of ticks from beginning of simulation (restored from checkpoints and never reset)
sim_freq                                 1000000000000                       # Frequency of simulated ticks
host_inst_rate                                 147781                       # Simulator instruction rate (inst/s)
host_op_rate                                   207182                       # Simulator op (including micro ops) rate (op/s)
host_tick_rate                              257096762                       # Simulator tick rate (ticks/s)
host_mem_usage                                1823552                       # Number of bytes of host memory used
host_seconds                                 15229.25                       # Real time elapsed on the host
sim_insts                                  2250587427                       # Number of instructions simulated
sim_ops                                    3155230836                       # Number of ops (including micro ops) simulated
system.voltage_domain.voltage                       1                       # Voltage in Volts
system.clk_domain.clock                          1000                       # Clock period in ticks
system.mem_ctrls.bytes_read::ruby.dir_cntrl0     94202432                       # Number of bytes read from this memory
system.mem_ctrls.bytes_read::total           94202432                       # Number of bytes read from this memory
system.mem_ctrls.bytes_written::ruby.dir_cntrl0     51381248                       # Number of bytes written to this memory
system.mem_ctrls.bytes_written::total        51381248                       # Number of bytes written to this memory
system.mem_ctrls.num_reads::ruby.dir_cntrl0      1471913                       # Number of read requests responded to by this memory
system.mem_ctrls.num_reads::total             1471913                       # Number of read requests responded to by this memory
system.mem_ctrls.num_writes::ruby.dir_cntrl0       802832                       # Number of write requests responded to by this memory
system.mem_ctrls.num_writes::total             802832                       # Number of write requests responded to by this memory
system.mem_ctrls.bw_read::ruby.dir_cntrl0     24059522                       # Total read bandwidth from this memory (bytes/s)
system.mem_ctrls.bw_read::total              24059522                       # Total read bandwidth from this memory (bytes/s)
system.mem_ctrls.bw_write::ruby.dir_cntrl0     13122891                       # Write bandwidth from this memory (bytes/s)
system.mem_ctrls.bw_write::total             13122891                       # Write bandwidth from this memory (bytes/s)
system.mem_ctrls.bw_total::ruby.dir_cntrl0     37182413                       # Total bandwidth to/from this memory (bytes/s)
system.mem_ctrls.bw_total::total             37182413                       # Total bandwidth to/from this memory (bytes/s)
system.mem_ctrls.readReqs                     1471913                       # Number of read requests accepted
system.mem_ctrls.writeReqs                     802832                       # Number of write requests accepted
system.mem_ctrls.readBursts                   1471913                       # Number of DRAM read bursts, including those serviced by the write queue
system.mem_ctrls.writeBursts                   802832                       # Number of DRAM write bursts, including those merged in the write queue
system.mem_ctrls.bytesReadDRAM               94118848                       # Total number of bytes read from DRAM
system.mem_ctrls.bytesReadWrQ                   83584                       # Total number of bytes read from write queue
system.mem_ctrls.bytesWritten                51381568                       # Total number of bytes written to DRAM
system.mem_ctrls.bytesReadSys                94202432                       # Total read bytes from the system interface side
system.mem_ctrls.bytesWrittenSys             51381248                       # Total written bytes from the system interface side
system.mem_ctrls.servicedByWrQ                   1306                       # Number of DRAM read bursts serviced by the write queue
system.mem_ctrls.mergedWrBursts                     0                       # Number of DRAM write bursts merged with an existing one
system.mem_ctrls.neitherReadNorWriteReqs            0                       # Number of requests that are neither read nor write
system.mem_ctrls.perBankRdBursts::0             95383                       # Per bank write bursts
system.mem_ctrls.perBankRdBursts::1             93356                       # Per bank write bursts
system.mem_ctrls.perBankRdBursts::2             93189                       # Per bank write bursts
system.mem_ctrls.perBankRdBursts::3             88431                       # Per bank write bursts
system.mem_ctrls.perBankRdBursts::4             86420                       # Per bank write bursts
system.mem_ctrls.perBankRdBursts::5             92719                       # Per bank write bursts
system.mem_ctrls.perBankRdBursts::6             98200                       # Per bank write bursts
system.mem_ctrls.perBankRdBursts::7             97317                       # Per bank write bursts
system.mem_ctrls.perBankRdBursts::8            102986                       # Per bank write bursts
system.mem_ctrls.perBankRdBursts::9             95918                       # Per bank write bursts
system.mem_ctrls.perBankRdBursts::10            92529                       # Per bank write bursts
system.mem_ctrls.perBankRdBursts::11            86465                       # Per bank write bursts
system.mem_ctrls.perBankRdBursts::12            84118                       # Per bank write bursts
system.mem_ctrls.perBankRdBursts::13            85695                       # Per bank write bursts
system.mem_ctrls.perBankRdBursts::14            86108                       # Per bank write bursts
system.mem_ctrls.perBankRdBursts::15            91773                       # Per bank write bursts
system.mem_ctrls.perBankWrBursts::0             51211                       # Per bank write bursts
system.mem_ctrls.perBankWrBursts::1             52436                       # Per bank write bursts
system.mem_ctrls.perBankWrBursts::2             51587                       # Per bank write bursts
system.mem_ctrls.perBankWrBursts::3             47809                       # Per bank write bursts
system.mem_ctrls.perBankWrBursts::4             46730                       # Per bank write bursts
system.mem_ctrls.perBankWrBursts::5             50432                       # Per bank write bursts
system.mem_ctrls.perBankWrBursts::6             53154                       # Per bank write bursts
system.mem_ctrls.perBankWrBursts::7             52123                       # Per bank write bursts
system.mem_ctrls.perBankWrBursts::8             54316                       # Per bank write bursts
system.mem_ctrls.perBankWrBursts::9             51697                       # Per bank write bursts
system.mem_ctrls.perBankWrBursts::10            52097                       # Per bank write bursts
system.mem_ctrls.perBankWrBursts::11            48315                       # Per bank write bursts
system.mem_ctrls.perBankWrBursts::12            47227                       # Per bank write bursts
system.mem_ctrls.perBankWrBursts::13            46379                       # Per bank write bursts
system.mem_ctrls.perBankWrBursts::14            47242                       # Per bank write bursts
system.mem_ctrls.perBankWrBursts::15            50082                       # Per bank write bursts
system.mem_ctrls.numRdRetry                         0                       # Number of times read queue was full causing retry
system.mem_ctrls.numWrRetry                         0                       # Number of times write queue was full causing retry
system.mem_ctrls.totGap                  3915390805500                       # Total gap between requests
system.mem_ctrls.readPktSize::0                     0                       # Read request sizes (log2)
system.mem_ctrls.readPktSize::1                     0                       # Read request sizes (log2)
system.mem_ctrls.readPktSize::2                     0                       # Read request sizes (log2)
system.mem_ctrls.readPktSize::3                     0                       # Read request sizes (log2)
system.mem_ctrls.readPktSize::4                     0                       # Read request sizes (log2)
system.mem_ctrls.readPktSize::5                     0                       # Read request sizes (log2)
system.mem_ctrls.readPktSize::6               1471913                       # Read request sizes (log2)
system.mem_ctrls.writePktSize::0                    0                       # Write request sizes (log2)
system.mem_ctrls.writePktSize::1                    0                       # Write request sizes (log2)
system.mem_ctrls.writePktSize::2                    0                       # Write request sizes (log2)
system.mem_ctrls.writePktSize::3                    0                       # Write request sizes (log2)
system.mem_ctrls.writePktSize::4                    0                       # Write request sizes (log2)
system.mem_ctrls.writePktSize::5                    0                       # Write request sizes (log2)
system.mem_ctrls.writePktSize::6               802832                       # Write request sizes (log2)
system.mem_ctrls.rdQLenPdf::0                 1465845                       # What read queue length does an incoming req see
system.mem_ctrls.rdQLenPdf::1                    4729                       # What read queue length does an incoming req see
system.mem_ctrls.rdQLenPdf::2                      31                       # What read queue length does an incoming req see
system.mem_ctrls.rdQLenPdf::3                       2                       # What read queue length does an incoming req see
system.mem_ctrls.rdQLenPdf::4                       0                       # What read queue length does an incoming req see
system.mem_ctrls.rdQLenPdf::5                       0                       # What read queue length does an incoming req see
system.mem_ctrls.rdQLenPdf::6                       0                       # What read queue length does an incoming req see
system.mem_ctrls.rdQLenPdf::7                       0                       # What read queue length does an incoming req see
system.mem_ctrls.rdQLenPdf::8                       0                       # What read queue length does an incoming req see
system.mem_ctrls.rdQLenPdf::9                       0                       # What read queue length does an incoming req see
system.mem_ctrls.rdQLenPdf::10                      0                       # What read queue length does an incoming req see
system.mem_ctrls.rdQLenPdf::11                      0                       # What read queue length does an incoming req see
system.mem_ctrls.rdQLenPdf::12                      0                       # What read queue length does an incoming req see
system.mem_ctrls.rdQLenPdf::13                      0                       # What read queue length does an incoming req see
system.mem_ctrls.rdQLenPdf::14                      0                       # What read queue length does an incoming req see
system.mem_ctrls.rdQLenPdf::15                      0                       # What read queue length does an incoming req see
system.mem_ctrls.rdQLenPdf::16                      0                       # What read queue length does an incoming req see
system.mem_ctrls.rdQLenPdf::17                      0                       # What read queue length does an incoming req see
system.mem_ctrls.rdQLenPdf::18                      0                       # What read queue length does an incoming req see
system.mem_ctrls.rdQLenPdf::19                      0                       # What read queue length does an incoming req see
system.mem_ctrls.rdQLenPdf::20                      0                       # What read queue length does an incoming req see
system.mem_ctrls.rdQLenPdf::21                      0                       # What read queue length does an incoming req see
system.mem_ctrls.rdQLenPdf::22                      0                       # What read queue length does an incoming req see
system.mem_ctrls.rdQLenPdf::23                      0                       # What read queue length does an incoming req see
system.mem_ctrls.rdQLenPdf::24                      0                       # What read queue length does an incoming req see
system.mem_ctrls.rdQLenPdf::25                      0                       # What read queue length does an incoming req see
system.mem_ctrls.rdQLenPdf::26                      0                       # What read queue length does an incoming req see
system.mem_ctrls.rdQLenPdf::27                      0                       # What read queue length does an incoming req see
system.mem_ctrls.rdQLenPdf::28                      0                       # What read queue length does an incoming req see
system.mem_ctrls.rdQLenPdf::29                      0                       # What read queue length does an incoming req see
system.mem_ctrls.rdQLenPdf::30                      0                       # What read queue length does an incoming req see
system.mem_ctrls.rdQLenPdf::31                      0                       # What read queue length does an incoming req see
system.mem_ctrls.wrQLenPdf::0                       0                       # What write queue length does an incoming req see
system.mem_ctrls.wrQLenPdf::1                       0                       # What write queue length does an incoming req see
system.mem_ctrls.wrQLenPdf::2                       0                       # What write queue length does an incoming req see
system.mem_ctrls.wrQLenPdf::3                       0                       # What write queue length does an incoming req see
system.mem_ctrls.wrQLenPdf::4                       0                       # What write queue length does an incoming req see
system.mem_ctrls.wrQLenPdf::5                       0                       # What write queue length does an incoming req see
system.mem_ctrls.wrQLenPdf::6                       0                       # What write queue length does an incoming req see
system.mem_ctrls.wrQLenPdf::7                       0                       # What write queue length does an incoming req see
system.mem_ctrls.wrQLenPdf::8                       0                       # What write queue length does an incoming req see
system.mem_ctrls.wrQLenPdf::9                       0                       # What write queue length does an incoming req see
system.mem_ctrls.wrQLenPdf::10                      0                       # What write queue length does an incoming req see
system.mem_ctrls.wrQLenPdf::11                      0                       # What write queue length does an incoming req see
system.mem_ctrls.wrQLenPdf::12                      0                       # What write queue length does an incoming req see
system.mem_ctrls.wrQLenPdf::13                      0                       # What write queue length does an incoming req see
system.mem_ctrls.wrQLenPdf::14                      0                       # What write queue length does an incoming req see
system.mem_ctrls.wrQLenPdf::15                   1167                       # What write queue length does an incoming req see
system.mem_ctrls.wrQLenPdf::16                   1281                       # What write queue length does an incoming req see
system.mem_ctrls.wrQLenPdf::17                  49332                       # What write queue length does an incoming req see
system.mem_ctrls.wrQLenPdf::18                  50008                       # What write queue length does an incoming req see
system.mem_ctrls.wrQLenPdf::19                  50019                       # What write queue length does an incoming req see
system.mem_ctrls.wrQLenPdf::20                  50075                       # What write queue length does an incoming req see
system.mem_ctrls.wrQLenPdf::21                  50118                       # What write queue length does an incoming req see
system.mem_ctrls.wrQLenPdf::22                  50089                       # What write queue length does an incoming req see
system.mem_ctrls.wrQLenPdf::23                  50133                       # What write queue length does an incoming req see
system.mem_ctrls.wrQLenPdf::24                  50116                       # What write queue length does an incoming req see
system.mem_ctrls.wrQLenPdf::25                  50076                       # What write queue length does an incoming req see
system.mem_ctrls.wrQLenPdf::26                  50099                       # What write queue length does an incoming req see
system.mem_ctrls.wrQLenPdf::27                  50082                       # What write queue length does an incoming req see
system.mem_ctrls.wrQLenPdf::28                  50054                       # What write queue length does an incoming req see
system.mem_ctrls.wrQLenPdf::29                  50044                       # What write queue length does an incoming req see
system.mem_ctrls.wrQLenPdf::30                  50046                       # What write queue length does an incoming req see
system.mem_ctrls.wrQLenPdf::31                  50039                       # What write queue length does an incoming req see
system.mem_ctrls.wrQLenPdf::32                  50023                       # What write queue length does an incoming req see
system.mem_ctrls.wrQLenPdf::33                      9                       # What write queue length does an incoming req see
system.mem_ctrls.wrQLenPdf::34                      6                       # What write queue length does an incoming req see
system.mem_ctrls.wrQLenPdf::35                      4                       # What write queue length does an incoming req see
system.mem_ctrls.wrQLenPdf::36                      2                       # What write queue length does an incoming req see
system.mem_ctrls.wrQLenPdf::37                      3                       # What write queue length does an incoming req see
system.mem_ctrls.wrQLenPdf::38                      2                       # What write queue length does an incoming req see
system.mem_ctrls.wrQLenPdf::39                      2                       # What write queue length does an incoming req see
system.mem_ctrls.wrQLenPdf::40                      2                       # What write queue length does an incoming req see
system.mem_ctrls.wrQLenPdf::41                      1                       # What write queue length does an incoming req see
system.mem_ctrls.wrQLenPdf::42                      0                       # What write queue length does an incoming req see
system.mem_ctrls.wrQLenPdf::43                      0                       # What write queue length does an incoming req see
system.mem_ctrls.wrQLenPdf::44                      0                       # What write queue length does an incoming req see
system.mem_ctrls.wrQLenPdf::45                      0                       # What write queue length does an incoming req see
system.mem_ctrls.wrQLenPdf::46                      0                       # What write queue length does an incoming req see
system.mem_ctrls.wrQLenPdf::47                      0                       # What write queue length does an incoming req see
system.mem_ctrls.wrQLenPdf::48                      0                       # What write queue length does an incoming req see
system.mem_ctrls.wrQLenPdf::49                      0                       # What write queue length does an incoming req see
system.mem_ctrls.wrQLenPdf::50                      0                       # What write queue length does an incoming req see
system.mem_ctrls.wrQLenPdf::51                      0                       # What write queue length does an incoming req see
system.mem_ctrls.wrQLenPdf::52                      0                       # What write queue length does an incoming req see
system.mem_ctrls.wrQLenPdf::53                      0                       # What write queue length does an incoming req see
system.mem_ctrls.wrQLenPdf::54                      0                       # What write queue length does an incoming req see
system.mem_ctrls.wrQLenPdf::55                      0                       # What write queue length does an incoming req see
system.mem_ctrls.wrQLenPdf::56                      0                       # What write queue length does an incoming req see
system.mem_ctrls.wrQLenPdf::57                      0                       # What write queue length does an incoming req see
system.mem_ctrls.wrQLenPdf::58                      0                       # What write queue length does an incoming req see
system.mem_ctrls.wrQLenPdf::59                      0                       # What write queue length does an incoming req see
system.mem_ctrls.wrQLenPdf::60                      0                       # What write queue length does an incoming req see
system.mem_ctrls.wrQLenPdf::61                      0                       # What write queue length does an incoming req see
system.mem_ctrls.wrQLenPdf::62                      0                       # What write queue length does an incoming req see
system.mem_ctrls.wrQLenPdf::63                      0                       # What write queue length does an incoming req see
system.mem_ctrls.bytesPerActivate::samples      1266598                       # Bytes accessed per row activation
system.mem_ctrls.bytesPerActivate::mean    114.874825                       # Bytes accessed per row activation
system.mem_ctrls.bytesPerActivate::gmean    87.858152                       # Bytes accessed per row activation
system.mem_ctrls.bytesPerActivate::stdev   141.043715                       # Bytes accessed per row activation
system.mem_ctrls.bytesPerActivate::0-127       892101     70.43%     70.43% # Bytes accessed per row activation
system.mem_ctrls.bytesPerActivate::128-255       280908     22.18%     92.61% # Bytes accessed per row activation
system.mem_ctrls.bytesPerActivate::256-383        37331      2.95%     95.56% # Bytes accessed per row activation
system.mem_ctrls.bytesPerActivate::384-511        15020      1.19%     96.74% # Bytes accessed per row activation
system.mem_ctrls.bytesPerActivate::512-639        10200      0.81%     97.55% # Bytes accessed per row activation
system.mem_ctrls.bytesPerActivate::640-767         9180      0.72%     98.27% # Bytes accessed per row activation
system.mem_ctrls.bytesPerActivate::768-895         5192      0.41%     98.68% # Bytes accessed per row activation
system.mem_ctrls.bytesPerActivate::896-1023         4074      0.32%     99.01% # Bytes accessed per row activation
system.mem_ctrls.bytesPerActivate::1024-1151        12592      0.99%    100.00% # Bytes accessed per row activation
system.mem_ctrls.bytesPerActivate::total      1266598                       # Bytes accessed per row activation
system.mem_ctrls.rdPerTurnAround::samples        50015                       # Reads before turning the bus around for writes
system.mem_ctrls.rdPerTurnAround::mean      29.711806                       # Reads before turning the bus around for writes
system.mem_ctrls.rdPerTurnAround::stdev     72.254648                       # Reads before turning the bus around for writes
system.mem_ctrls.rdPerTurnAround::0-511         50005     99.98%     99.98% # Reads before turning the bus around for writes
system.mem_ctrls.rdPerTurnAround::512-1023            6      0.01%     99.99% # Reads before turning the bus around for writes
system.mem_ctrls.rdPerTurnAround::1024-1535            2      0.00%    100.00% # Reads before turning the bus around for writes
system.mem_ctrls.rdPerTurnAround::1536-2047            1      0.00%    100.00% # Reads before turning the bus around for writes
system.mem_ctrls.rdPerTurnAround::15360-15871            1      0.00%    100.00% # Reads before turning the bus around for writes
system.mem_ctrls.rdPerTurnAround::total         50015                       # Reads before turning the bus around for writes
system.mem_ctrls.wrPerTurnAround::samples        50015                       # Writes before turning the bus around for reads
system.mem_ctrls.wrPerTurnAround::mean      16.051924                       # Writes before turning the bus around for reads
system.mem_ctrls.wrPerTurnAround::gmean     16.048918                       # Writes before turning the bus around for reads
system.mem_ctrls.wrPerTurnAround::stdev      0.324243                       # Writes before turning the bus around for reads
system.mem_ctrls.wrPerTurnAround::16            48695     97.36%     97.36% # Writes before turning the bus around for reads
system.mem_ctrls.wrPerTurnAround::17               96      0.19%     97.55% # Writes before turning the bus around for reads
system.mem_ctrls.wrPerTurnAround::18             1201      2.40%     99.95% # Writes before turning the bus around for reads
system.mem_ctrls.wrPerTurnAround::19               11      0.02%     99.98% # Writes before turning the bus around for reads
system.mem_ctrls.wrPerTurnAround::20                4      0.01%     99.98% # Writes before turning the bus around for reads
system.mem_ctrls.wrPerTurnAround::21                2      0.00%     99.99% # Writes before turning the bus around for reads
system.mem_ctrls.wrPerTurnAround::22                5      0.01%    100.00% # Writes before turning the bus around for reads
system.mem_ctrls.wrPerTurnAround::26                1      0.00%    100.00% # Writes before turning the bus around for reads
system.mem_ctrls.wrPerTurnAround::total         50015                       # Writes before turning the bus around for reads
system.mem_ctrls.totQLat                  24921884126                       # Total ticks spent queuing
system.mem_ctrls.totMemAccLat             52495765376                       # Total ticks spent from burst creation until serviced by the DRAM
system.mem_ctrls.totBusLat                 7353035000                       # Total ticks spent in databus transfers
system.mem_ctrls.avgQLat                     16946.66                       # Average queueing delay per DRAM burst
system.mem_ctrls.avgBusLat                    5000.00                       # Average bus latency per DRAM burst
system.mem_ctrls.avgMemAccLat                35696.66                       # Average memory access latency per DRAM burst
system.mem_ctrls.avgRdBW                        24.04                       # Average DRAM read bandwidth in MiByte/s
system.mem_ctrls.avgWrBW                        13.12                       # Average achieved write bandwidth in MiByte/s
system.mem_ctrls.avgRdBWSys                     24.06                       # Average system read bandwidth in MiByte/s
system.mem_ctrls.avgWrBWSys                     13.12                       # Average system write bandwidth in MiByte/s
system.mem_ctrls.peakBW                      12800.00                       # Theoretical peak bandwidth in MiByte/s
system.mem_ctrls.busUtil                         0.29                       # Data bus utilization in percentage
system.mem_ctrls.busUtilRead                     0.19                       # Data bus utilization in percentage for reads
system.mem_ctrls.busUtilWrite                    0.10                       # Data bus utilization in percentage for writes
system.mem_ctrls.avgRdQLen                       1.00                       # Average read queue length when enqueuing
system.mem_ctrls.avgWrQLen                      25.43                       # Average write queue length when enqueuing
system.mem_ctrls.readRowHits                   755417                       # Number of row buffer hits during reads
system.mem_ctrls.writeRowHits                  251426                       # Number of row buffer hits during writes
system.mem_ctrls.readRowHitRate                 51.37                       # Row buffer hit rate for reads
system.mem_ctrls.writeRowHitRate                31.32                       # Row buffer hit rate for writes
system.mem_ctrls.avgGap                    1721243.83                       # Average gap between requests
system.mem_ctrls.pageHitRate                    44.29                       # Row buffer hit rate, read and write combined
system.mem_ctrls_0.actEnergy               4885770960                       # Energy for activate commands per rank (pJ)
system.mem_ctrls_0.preEnergy               2665847250                       # Energy for precharge commands per rank (pJ)
system.mem_ctrls_0.readEnergy              5871824400                       # Energy for read commands per rank (pJ)
system.mem_ctrls_0.writeEnergy             2627432640                       # Energy for write commands per rank (pJ)
system.mem_ctrls_0.refreshEnergy         255960790800                       # Energy for refresh commands per rank (pJ)
system.mem_ctrls_0.actBackEnergy         459961342110                       # Energy for active background per rank (pJ)
system.mem_ctrls_0.preBackEnergy         1947840428250                       # Energy for precharge background per rank (pJ)
system.mem_ctrls_0.totalEnergy           2679813436410                       # Total energy per rank (pJ)
system.mem_ctrls_0.averagePower            683.824951                       # Core power per rank (mW)
system.mem_ctrls_0.memoryStateTime::IDLE 3236542274000                       # Time in different power states
system.mem_ctrls_0.memoryStateTime::REF  130743340000                       # Time in different power states
system.mem_ctrls_0.memoryStateTime::PRE_PDN            0                       # Time in different power states
system.mem_ctrls_0.memoryStateTime::ACT  548099618500                       # Time in different power states
system.mem_ctrls_0.memoryStateTime::ACT_PDN            0                       # Time in different power states
system.mem_ctrls_1.actEnergy               4718377440                       # Energy for activate commands per rank (pJ)
system.mem_ctrls_1.preEnergy               2574511500                       # Energy for precharge commands per rank (pJ)
system.mem_ctrls_1.readEnergy              5719240800                       # Energy for read commands per rank (pJ)
system.mem_ctrls_1.writeEnergy             2574847440                       # Energy for write commands per rank (pJ)
system.mem_ctrls_1.refreshEnergy         255960790800                       # Energy for refresh commands per rank (pJ)
system.mem_ctrls_1.actBackEnergy         456079744710                       # Energy for active background per rank (pJ)
system.mem_ctrls_1.preBackEnergy         1951245338250                       # Energy for precharge background per rank (pJ)
system.mem_ctrls_1.totalEnergy           2678872850940                       # Total energy per rank (pJ)
system.mem_ctrls_1.averagePower            683.584935                       # Core power per rank (mW)
system.mem_ctrls_1.memoryStateTime::IDLE 3242189876001                       # Time in different power states
system.mem_ctrls_1.memoryStateTime::REF  130743340000                       # Time in different power states
system.mem_ctrls_1.memoryStateTime::PRE_PDN            0                       # Time in different power states
system.mem_ctrls_1.memoryStateTime::ACT  542453803749                       # Time in different power states
system.mem_ctrls_1.memoryStateTime::ACT_PDN            0                       # Time in different power states
system.cpu_voltage_domain.voltage                   1                       # Voltage in Volts
system.cpu_clk_domain.clock                       500                       # Clock period in ticks
system.cpu0.apic_clk_domain.clock                8000                       # Clock period in ticks
system.cpu0.numCycles                      7828754940                       # number of cpu cycles simulated
system.cpu0.numWorkItemsStarted                     0                       # number of work items this cpu started
system.cpu0.numWorkItemsCompleted                   0                       # number of work items this cpu completed
system.cpu0.kern.inst.arm                           0                       # number of arm instructions executed
system.cpu0.kern.inst.quiesce                       0                       # number of quiesce instructions executed
system.cpu0.committedInsts                    4141920                       # Number of instructions committed
system.cpu0.committedOps                      8704727                       # Number of ops (including micro ops) committed
system.cpu0.num_int_alu_accesses              8533676                       # Number of integer alu accesses
system.cpu0.num_fp_alu_accesses                  1929                       # Number of float alu accesses
system.cpu0.num_func_calls                     241091                       # number of times a function call or return occured
system.cpu0.num_conditional_control_insts       618208                       # number of instructions that are conditional controls
system.cpu0.num_int_insts                     8533676                       # number of integer instructions
system.cpu0.num_fp_insts                         1929                       # number of float instructions
system.cpu0.num_int_register_reads           17293786                       # number of times the integer registers were read
system.cpu0.num_int_register_writes           7028023                       # number of times the integer registers were written
system.cpu0.num_fp_register_reads                3243                       # number of times the floating registers were read
system.cpu0.num_fp_register_writes               1535                       # number of times the floating registers were written
system.cpu0.num_cc_register_reads             4898183                       # number of times the CC registers were read
system.cpu0.num_cc_register_writes            2710262                       # number of times the CC registers were written
system.cpu0.num_mem_refs                      2033769                       # number of memory refs
system.cpu0.num_load_insts                    1263306                       # Number of load instructions
system.cpu0.num_store_insts                    770463                       # Number of store instructions
system.cpu0.num_idle_cycles              7809203031.852032                       # Number of idle cycles
system.cpu0.num_busy_cycles              19551908.147968                       # Number of busy cycles
system.cpu0.not_idle_fraction                0.002497                       # Percentage of non-idle cycles
system.cpu0.idle_fraction                    0.997503                       # Percentage of idle cycles
system.cpu0.Branches                           930946                       # Number of branches fetched
system.cpu0.op_class::No_OpClass               124188      1.43%      1.43% # Class of executed instruction
system.cpu0.op_class::IntAlu                  6487853     74.53%     75.96% # Class of executed instruction
system.cpu0.op_class::IntMult                   17093      0.20%     76.15% # Class of executed instruction
system.cpu0.op_class::IntDiv                    40456      0.46%     76.62% # Class of executed instruction
system.cpu0.op_class::FloatAdd                   1458      0.02%     76.64% # Class of executed instruction
system.cpu0.op_class::FloatCmp                      0      0.00%     76.64% # Class of executed instruction
system.cpu0.op_class::FloatCvt                      0      0.00%     76.64% # Class of executed instruction
system.cpu0.op_class::FloatMult                     0      0.00%     76.64% # Class of executed instruction
system.cpu0.op_class::FloatDiv                      0      0.00%     76.64% # Class of executed instruction
system.cpu0.op_class::FloatSqrt                     0      0.00%     76.64% # Class of executed instruction
system.cpu0.op_class::SimdAdd                       0      0.00%     76.64% # Class of executed instruction
system.cpu0.op_class::SimdAddAcc                    0      0.00%     76.64% # Class of executed instruction
system.cpu0.op_class::SimdAlu                       0      0.00%     76.64% # Class of executed instruction
system.cpu0.op_class::SimdCmp                       0      0.00%     76.64% # Class of executed instruction
system.cpu0.op_class::SimdCvt                       0      0.00%     76.64% # Class of executed instruction
system.cpu0.op_class::SimdMisc                      0      0.00%     76.64% # Class of executed instruction
system.cpu0.op_class::SimdMult                      0      0.00%     76.64% # Class of executed instruction
system.cpu0.op_class::SimdMultAcc                   0      0.00%     76.64% # Class of executed instruction
system.cpu0.op_class::SimdShift                     0      0.00%     76.64% # Class of executed instruction
system.cpu0.op_class::SimdShiftAcc                  0      0.00%     76.64% # Class of executed instruction
system.cpu0.op_class::SimdSqrt                      0      0.00%     76.64% # Class of executed instruction
system.cpu0.op_class::SimdFloatAdd                  0      0.00%     76.64% # Class of executed instruction
system.cpu0.op_class::SimdFloatAlu                  0      0.00%     76.64% # Class of executed instruction
system.cpu0.op_class::SimdFloatCmp                  0      0.00%     76.64% # Class of executed instruction
system.cpu0.op_class::SimdFloatCvt                  0      0.00%     76.64% # Class of executed instruction
system.cpu0.op_class::SimdFloatDiv                  0      0.00%     76.64% # Class of executed instruction
system.cpu0.op_class::SimdFloatMisc                 0      0.00%     76.64% # Class of executed instruction
system.cpu0.op_class::SimdFloatMult                 0      0.00%     76.64% # Class of executed instruction
system.cpu0.op_class::SimdFloatMultAcc              0      0.00%     76.64% # Class of executed instruction
system.cpu0.op_class::SimdFloatSqrt                 0      0.00%     76.64% # Class of executed instruction
system.cpu0.op_class::MemRead                 1263306     14.51%     91.15% # Class of executed instruction
system.cpu0.op_class::MemWrite                 770463      8.85%    100.00% # Class of executed instruction
system.cpu0.op_class::IprAccess                     0      0.00%    100.00% # Class of executed instruction
system.cpu0.op_class::InstPrefetch                  0      0.00%    100.00% # Class of executed instruction
system.cpu0.op_class::total                   8704817                       # Class of executed instruction
system.cpu1.apic_clk_domain.clock                8000                       # Clock period in ticks
system.cpu1.numCycles                      7830996274                       # number of cpu cycles simulated
system.cpu1.numWorkItemsStarted                     0                       # number of work items this cpu started
system.cpu1.numWorkItemsCompleted                   0                       # number of work items this cpu completed
system.cpu1.kern.inst.arm                           0                       # number of arm instructions executed
system.cpu1.kern.inst.quiesce                       0                       # number of quiesce instructions executed
system.cpu1.committedInsts                    2843413                       # Number of instructions committed
system.cpu1.committedOps                      6126148                       # Number of ops (including micro ops) committed
system.cpu1.num_int_alu_accesses              5989892                       # Number of integer alu accesses
system.cpu1.num_fp_alu_accesses                    39                       # Number of float alu accesses
system.cpu1.num_func_calls                     168072                       # number of times a function call or return occured
system.cpu1.num_conditional_control_insts       432160                       # number of instructions that are conditional controls
system.cpu1.num_int_insts                     5989892                       # number of integer instructions
system.cpu1.num_fp_insts                           39                       # number of float instructions
system.cpu1.num_int_register_reads           12184996                       # number of times the integer registers were read
system.cpu1.num_int_register_writes           4971667                       # number of times the integer registers were written
system.cpu1.num_fp_register_reads                  63                       # number of times the floating registers were read
system.cpu1.num_fp_register_writes                 31                       # number of times the floating registers were written
system.cpu1.num_cc_register_reads             3458224                       # number of times the CC registers were read
system.cpu1.num_cc_register_writes            1812300                       # number of times the CC registers were written
system.cpu1.num_mem_refs                      1459057                       # number of memory refs
system.cpu1.num_load_insts                     905848                       # Number of load instructions
system.cpu1.num_store_insts                    553209                       # Number of store instructions
system.cpu1.num_idle_cycles              7817503561.376002                       # Number of idle cycles
system.cpu1.num_busy_cycles              13492712.623998                       # Number of busy cycles
system.cpu1.not_idle_fraction                0.001723                       # Percentage of non-idle cycles
system.cpu1.idle_fraction                    0.998277                       # Percentage of idle cycles
system.cpu1.Branches                           655197                       # Number of branches fetched
system.cpu1.op_class::No_OpClass               116523      1.90%      1.90% # Class of executed instruction
system.cpu1.op_class::IntAlu                  4496646     73.40%     75.30% # Class of executed instruction
system.cpu1.op_class::IntMult                   12314      0.20%     75.50% # Class of executed instruction
system.cpu1.op_class::IntDiv                    41600      0.68%     76.18% # Class of executed instruction
system.cpu1.op_class::FloatAdd                     30      0.00%     76.18% # Class of executed instruction
system.cpu1.op_class::FloatCmp                      0      0.00%     76.18% # Class of executed instruction
system.cpu1.op_class::FloatCvt                      0      0.00%     76.18% # Class of executed instruction
system.cpu1.op_class::FloatMult                     0      0.00%     76.18% # Class of executed instruction
system.cpu1.op_class::FloatDiv                      0      0.00%     76.18% # Class of executed instruction
system.cpu1.op_class::FloatSqrt                     0      0.00%     76.18% # Class of executed instruction
system.cpu1.op_class::SimdAdd                       0      0.00%     76.18% # Class of executed instruction
system.cpu1.op_class::SimdAddAcc                    0      0.00%     76.18% # Class of executed instruction
system.cpu1.op_class::SimdAlu                       0      0.00%     76.18% # Class of executed instruction
system.cpu1.op_class::SimdCmp                       0      0.00%     76.18% # Class of executed instruction
system.cpu1.op_class::SimdCvt                       0      0.00%     76.18% # Class of executed instruction
system.cpu1.op_class::SimdMisc                      0      0.00%     76.18% # Class of executed instruction
system.cpu1.op_class::SimdMult                      0      0.00%     76.18% # Class of executed instruction
system.cpu1.op_class::SimdMultAcc                   0      0.00%     76.18% # Class of executed instruction
system.cpu1.op_class::SimdShift                     0      0.00%     76.18% # Class of executed instruction
system.cpu1.op_class::SimdShiftAcc                  0      0.00%     76.18% # Class of executed instruction
system.cpu1.op_class::SimdSqrt                      0      0.00%     76.18% # Class of executed instruction
system.cpu1.op_class::SimdFloatAdd                  0      0.00%     76.18% # Class of executed instruction
system.cpu1.op_class::SimdFloatAlu                  0      0.00%     76.18% # Class of executed instruction
system.cpu1.op_class::SimdFloatCmp                  0      0.00%     76.18% # Class of executed instruction
system.cpu1.op_class::SimdFloatCvt                  0      0.00%     76.18% # Class of executed instruction
system.cpu1.op_class::SimdFloatDiv                  0      0.00%     76.18% # Class of executed instruction
system.cpu1.op_class::SimdFloatMisc                 0      0.00%     76.18% # Class of executed instruction
system.cpu1.op_class::SimdFloatMult                 0      0.00%     76.18% # Class of executed instruction
system.cpu1.op_class::SimdFloatMultAcc              0      0.00%     76.18% # Class of executed instruction
system.cpu1.op_class::SimdFloatSqrt                 0      0.00%     76.18% # Class of executed instruction
system.cpu1.op_class::MemRead                  905848     14.79%     90.97% # Class of executed instruction
system.cpu1.op_class::MemWrite                 553209      9.03%    100.00% # Class of executed instruction
system.cpu1.op_class::IprAccess                     0      0.00%    100.00% # Class of executed instruction
system.cpu1.op_class::InstPrefetch                  0      0.00%    100.00% # Class of executed instruction
system.cpu1.op_class::total                   6126170                       # Class of executed instruction
system.cpu2.apic_clk_domain.clock                8000                       # Clock period in ticks
system.cpu2.numCycles                      7831656879                       # number of cpu cycles simulated
system.cpu2.numWorkItemsStarted                     0                       # number of work items this cpu started
system.cpu2.numWorkItemsCompleted                   0                       # number of work items this cpu completed
system.cpu2.kern.inst.arm                           0                       # number of arm instructions executed
system.cpu2.kern.inst.quiesce                       0                       # number of quiesce instructions executed
system.cpu2.committedInsts                 2239420313                       # Number of instructions committed
system.cpu2.committedOps                   3131805721                       # Number of ops (including micro ops) committed
system.cpu2.num_int_alu_accesses           1364851575                       # Number of integer alu accesses
system.cpu2.num_fp_alu_accesses            2127680265                       # Number of float alu accesses
system.cpu2.num_func_calls                    4832091                       # number of times a function call or return occured
system.cpu2.num_conditional_control_insts    125335646                       # number of instructions that are conditional controls
system.cpu2.num_int_insts                  1364851575                       # number of integer instructions
system.cpu2.num_fp_insts                   2127680265                       # number of float instructions
system.cpu2.num_int_register_reads         2745211145                       # number of times the integer registers were read
system.cpu2.num_int_register_writes         828356547                       # number of times the integer registers were written
system.cpu2.num_fp_register_reads          4601234005                       # number of times the floating registers were read
system.cpu2.num_fp_register_writes         2077617833                       # number of times the floating registers were written
system.cpu2.num_cc_register_reads           735851218                       # number of times the CC registers were read
system.cpu2.num_cc_register_writes          430106199                       # number of times the CC registers were written
system.cpu2.num_mem_refs                    408295729                       # number of memory refs
system.cpu2.num_load_insts                  353588106                       # Number of load instructions
system.cpu2.num_store_insts                  54707623                       # Number of store instructions
system.cpu2.num_idle_cycles              5018498.778292                       # Number of idle cycles
system.cpu2.num_busy_cycles              7826638380.221708                       # Number of busy cycles
system.cpu2.not_idle_fraction                0.999359                       # Percentage of non-idle cycles
system.cpu2.idle_fraction                    0.000641                       # Percentage of idle cycles
system.cpu2.Branches                        163295446                       # Number of branches fetched
system.cpu2.op_class::No_OpClass              2281593      0.07%      0.07% # Class of executed instruction
system.cpu2.op_class::IntAlu               1676563570     53.53%     53.61% # Class of executed instruction
system.cpu2.op_class::IntMult                   78865      0.00%     53.61% # Class of executed instruction
system.cpu2.op_class::IntDiv                    98975      0.00%     53.61% # Class of executed instruction
system.cpu2.op_class::FloatAdd             1044495651     33.35%     86.96% # Class of executed instruction
system.cpu2.op_class::FloatCmp                      0      0.00%     86.96% # Class of executed instruction
system.cpu2.op_class::FloatCvt                      0      0.00%     86.96% # Class of executed instruction
system.cpu2.op_class::FloatMult                     0      0.00%     86.96% # Class of executed instruction
system.cpu2.op_class::FloatDiv                      0      0.00%     86.96% # Class of executed instruction
system.cpu2.op_class::FloatSqrt                     0      0.00%     86.96% # Class of executed instruction
system.cpu2.op_class::SimdAdd                       0      0.00%     86.96% # Class of executed instruction
system.cpu2.op_class::SimdAddAcc                    0      0.00%     86.96% # Class of executed instruction
system.cpu2.op_class::SimdAlu                       0      0.00%     86.96% # Class of executed instruction
system.cpu2.op_class::SimdCmp                       0      0.00%     86.96% # Class of executed instruction
system.cpu2.op_class::SimdCvt                       0      0.00%     86.96% # Class of executed instruction
system.cpu2.op_class::SimdMisc                      0      0.00%     86.96% # Class of executed instruction
system.cpu2.op_class::SimdMult                      0      0.00%     86.96% # Class of executed instruction
system.cpu2.op_class::SimdMultAcc                   0      0.00%     86.96% # Class of executed instruction
system.cpu2.op_class::SimdShift                     0      0.00%     86.96% # Class of executed instruction
system.cpu2.op_class::SimdShiftAcc                  0      0.00%     86.96% # Class of executed instruction
system.cpu2.op_class::SimdSqrt                      0      0.00%     86.96% # Class of executed instruction
system.cpu2.op_class::SimdFloatAdd                  0      0.00%     86.96% # Class of executed instruction
system.cpu2.op_class::SimdFloatAlu                  0      0.00%     86.96% # Class of executed instruction
system.cpu2.op_class::SimdFloatCmp                  0      0.00%     86.96% # Class of executed instruction
system.cpu2.op_class::SimdFloatCvt                  0      0.00%     86.96% # Class of executed instruction
system.cpu2.op_class::SimdFloatDiv                  0      0.00%     86.96% # Class of executed instruction
system.cpu2.op_class::SimdFloatMisc                 0      0.00%     86.96% # Class of executed instruction
system.cpu2.op_class::SimdFloatMult                 0      0.00%     86.96% # Class of executed instruction
system.cpu2.op_class::SimdFloatMultAcc              0      0.00%     86.96% # Class of executed instruction
system.cpu2.op_class::SimdFloatSqrt                 0      0.00%     86.96% # Class of executed instruction
system.cpu2.op_class::MemRead               353588106     11.29%     98.25% # Class of executed instruction
system.cpu2.op_class::MemWrite               54707623      1.75%    100.00% # Class of executed instruction
system.cpu2.op_class::IprAccess                     0      0.00%    100.00% # Class of executed instruction
system.cpu2.op_class::InstPrefetch                  0      0.00%    100.00% # Class of executed instruction
system.cpu2.op_class::total                3131814383                       # Class of executed instruction
system.cpu3.apic_clk_domain.clock                8000                       # Clock period in ticks
system.cpu3.numCycles                      7826995020                       # number of cpu cycles simulated
system.cpu3.numWorkItemsStarted                     0                       # number of work items this cpu started
system.cpu3.numWorkItemsCompleted                   0                       # number of work items this cpu completed
system.cpu3.kern.inst.arm                           0                       # number of arm instructions executed
system.cpu3.kern.inst.quiesce                       0                       # number of quiesce instructions executed
system.cpu3.committedInsts                    2777780                       # Number of instructions committed
system.cpu3.committedOps                      5998299                       # Number of ops (including micro ops) committed
system.cpu3.num_int_alu_accesses              5865153                       # Number of integer alu accesses
system.cpu3.num_fp_alu_accesses                     0                       # Number of float alu accesses
system.cpu3.num_func_calls                     165152                       # number of times a function call or return occured
system.cpu3.num_conditional_control_insts       421832                       # number of instructions that are conditional controls
system.cpu3.num_int_insts                     5865153                       # number of integer instructions
system.cpu3.num_fp_insts                            0                       # number of float instructions
system.cpu3.num_int_register_reads           11924932                       # number of times the integer registers were read
system.cpu3.num_int_register_writes           4872461                       # number of times the integer registers were written
system.cpu3.num_fp_register_reads                   0                       # number of times the floating registers were read
system.cpu3.num_fp_register_writes                  0                       # number of times the floating registers were written
system.cpu3.num_cc_register_reads             3380917                       # number of times the CC registers were read
system.cpu3.num_cc_register_writes            1773470                       # number of times the CC registers were written
system.cpu3.num_mem_refs                      1426584                       # number of memory refs
system.cpu3.num_load_insts                     886938                       # Number of load instructions
system.cpu3.num_store_insts                    539646                       # Number of store instructions
system.cpu3.num_idle_cycles              7814003181.501289                       # Number of idle cycles
system.cpu3.num_busy_cycles              12991838.498711                       # Number of busy cycles
system.cpu3.not_idle_fraction                0.001660                       # Percentage of non-idle cycles
system.cpu3.idle_fraction                    0.998340                       # Percentage of idle cycles
system.cpu3.Branches                           640964                       # Number of branches fetched
system.cpu3.op_class::No_OpClass               114135      1.90%      1.90% # Class of executed instruction
system.cpu3.op_class::IntAlu                  4403860     73.42%     75.32% # Class of executed instruction
system.cpu3.op_class::IntMult                   12171      0.20%     75.52% # Class of executed instruction
system.cpu3.op_class::IntDiv                    41552      0.69%     76.22% # Class of executed instruction
system.cpu3.op_class::FloatAdd                      0      0.00%     76.22% # Class of executed instruction
system.cpu3.op_class::FloatCmp                      0      0.00%     76.22% # Class of executed instruction
system.cpu3.op_class::FloatCvt                      0      0.00%     76.22% # Class of executed instruction
system.cpu3.op_class::FloatMult                     0      0.00%     76.22% # Class of executed instruction
system.cpu3.op_class::FloatDiv                      0      0.00%     76.22% # Class of executed instruction
system.cpu3.op_class::FloatSqrt                     0      0.00%     76.22% # Class of executed instruction
system.cpu3.op_class::SimdAdd                       0      0.00%     76.22% # Class of executed instruction
system.cpu3.op_class::SimdAddAcc                    0      0.00%     76.22% # Class of executed instruction
system.cpu3.op_class::SimdAlu                       0      0.00%     76.22% # Class of executed instruction
system.cpu3.op_class::SimdCmp                       0      0.00%     76.22% # Class of executed instruction
system.cpu3.op_class::SimdCvt                       0      0.00%     76.22% # Class of executed instruction
system.cpu3.op_class::SimdMisc                      0      0.00%     76.22% # Class of executed instruction
system.cpu3.op_class::SimdMult                      0      0.00%     76.22% # Class of executed instruction
system.cpu3.op_class::SimdMultAcc                   0      0.00%     76.22% # Class of executed instruction
system.cpu3.op_class::SimdShift                     0      0.00%     76.22% # Class of executed instruction
system.cpu3.op_class::SimdShiftAcc                  0      0.00%     76.22% # Class of executed instruction
system.cpu3.op_class::SimdSqrt                      0      0.00%     76.22% # Class of executed instruction
system.cpu3.op_class::SimdFloatAdd                  0      0.00%     76.22% # Class of executed instruction
system.cpu3.op_class::SimdFloatAlu                  0      0.00%     76.22% # Class of executed instruction
system.cpu3.op_class::SimdFloatCmp                  0      0.00%     76.22% # Class of executed instruction
system.cpu3.op_class::SimdFloatCvt                  0      0.00%     76.22% # Class of executed instruction
system.cpu3.op_class::SimdFloatDiv                  0      0.00%     76.22% # Class of executed instruction
system.cpu3.op_class::SimdFloatMisc                 0      0.00%     76.22% # Class of executed instruction
system.cpu3.op_class::SimdFloatMult                 0      0.00%     76.22% # Class of executed instruction
system.cpu3.op_class::SimdFloatMultAcc              0      0.00%     76.22% # Class of executed instruction
system.cpu3.op_class::SimdFloatSqrt                 0      0.00%     76.22% # Class of executed instruction
system.cpu3.op_class::MemRead                  886938     14.79%     91.00% # Class of executed instruction
system.cpu3.op_class::MemWrite                 539646      9.00%    100.00% # Class of executed instruction
system.cpu3.op_class::IprAccess                     0      0.00%    100.00% # Class of executed instruction
system.cpu3.op_class::InstPrefetch                  0      0.00%    100.00% # Class of executed instruction
system.cpu3.op_class::total                   5998302                       # Class of executed instruction
system.iobus.trans_dist::ReadReq                  202                       # Transaction distribution
system.iobus.trans_dist::ReadResp                 202                       # Transaction distribution
system.iobus.trans_dist::WriteReq                4060                       # Transaction distribution
system.iobus.trans_dist::WriteResp               4060                       # Transaction distribution
system.iobus.trans_dist::MessageReq                20                       # Transaction distribution
system.iobus.trans_dist::MessageResp               20                       # Transaction distribution
system.iobus.pkt_count_system.pc.south_bridge.io_apic.int_master::system.ruby.l1_cntrl0.sequencer.pio-slave-port            6                       # Packet count per connected master and slave (bytes)
system.iobus.pkt_count_system.pc.south_bridge.io_apic.int_master::system.ruby.l1_cntrl1.sequencer.pio-slave-port            6                       # Packet count per connected master and slave (bytes)
system.iobus.pkt_count_system.pc.south_bridge.io_apic.int_master::system.ruby.l1_cntrl2.sequencer.pio-slave-port            4                       # Packet count per connected master and slave (bytes)
system.iobus.pkt_count_system.pc.south_bridge.io_apic.int_master::system.ruby.l1_cntrl3.sequencer.pio-slave-port            6                       # Packet count per connected master and slave (bytes)
system.iobus.pkt_count_system.pc.south_bridge.io_apic.int_master::total           22                       # Packet count per connected master and slave (bytes)
system.iobus.pkt_count_system.ruby.l1_cntrl0.sequencer.mem-master-port::system.pc.south_bridge.ide.pio           46                       # Packet count per connected master and slave (bytes)
system.iobus.pkt_count_system.ruby.l1_cntrl0.sequencer.mem-master-port::system.pc.south_bridge.io_apic.pio           14                       # Packet count per connected master and slave (bytes)
system.iobus.pkt_count_system.ruby.l1_cntrl0.sequencer.mem-master-port::system.pc.com_1.pio           22                       # Packet count per connected master and slave (bytes)
system.iobus.pkt_count_system.ruby.l1_cntrl0.sequencer.mem-master-port::system.ruby.l1_cntrl0.sequencer.pio-slave-port         1984                       # Packet count per connected master and slave (bytes)
system.iobus.pkt_count_system.ruby.l1_cntrl0.sequencer.mem-master-port::system.ruby.l1_cntrl1.sequencer.pio-slave-port            2                       # Packet count per connected master and slave (bytes)
system.iobus.pkt_count_system.ruby.l1_cntrl0.sequencer.mem-master-port::system.ruby.l1_cntrl2.sequencer.pio-slave-port            2                       # Packet count per connected master and slave (bytes)
system.iobus.pkt_count_system.ruby.l1_cntrl0.sequencer.mem-master-port::system.ruby.l1_cntrl3.sequencer.pio-slave-port            2                       # Packet count per connected master and slave (bytes)
system.iobus.pkt_count_system.ruby.l1_cntrl0.sequencer.mem-master-port::total         2072                       # Packet count per connected master and slave (bytes)
system.iobus.pkt_count_system.ruby.l1_cntrl1.sequencer.mem-master-port::system.pc.south_bridge.io_apic.pio           22                       # Packet count per connected master and slave (bytes)
system.iobus.pkt_count_system.ruby.l1_cntrl1.sequencer.mem-master-port::system.pc.com_1.pio          164                       # Packet count per connected master and slave (bytes)
system.iobus.pkt_count_system.ruby.l1_cntrl1.sequencer.mem-master-port::system.ruby.l1_cntrl1.sequencer.pio-slave-port         1978                       # Packet count per connected master and slave (bytes)
system.iobus.pkt_count_system.ruby.l1_cntrl1.sequencer.mem-master-port::system.ruby.l1_cntrl2.sequencer.pio-slave-port            2                       # Packet count per connected master and slave (bytes)
system.iobus.pkt_count_system.ruby.l1_cntrl1.sequencer.mem-master-port::total         2166                       # Packet count per connected master and slave (bytes)
system.iobus.pkt_count_system.ruby.l1_cntrl2.sequencer.mem-master-port::system.pc.south_bridge.ide.pio           34                       # Packet count per connected master and slave (bytes)
system.iobus.pkt_count_system.ruby.l1_cntrl2.sequencer.mem-master-port::system.pc.south_bridge.io_apic.pio           16                       # Packet count per connected master and slave (bytes)
system.iobus.pkt_count_system.ruby.l1_cntrl2.sequencer.mem-master-port::system.ruby.l1_cntrl1.sequencer.pio-slave-port            6                       # Packet count per connected master and slave (bytes)
system.iobus.pkt_count_system.ruby.l1_cntrl2.sequencer.mem-master-port::system.ruby.l1_cntrl2.sequencer.pio-slave-port         1990                       # Packet count per connected master and slave (bytes)
system.iobus.pkt_count_system.ruby.l1_cntrl2.sequencer.mem-master-port::system.ruby.l1_cntrl3.sequencer.pio-slave-port            2                       # Packet count per connected master and slave (bytes)
system.iobus.pkt_count_system.ruby.l1_cntrl2.sequencer.mem-master-port::total         2048                       # Packet count per connected master and slave (bytes)
system.iobus.pkt_count_system.ruby.l1_cntrl3.sequencer.mem-master-port::system.pc.south_bridge.ide.pio           12                       # Packet count per connected master and slave (bytes)
system.iobus.pkt_count_system.ruby.l1_cntrl3.sequencer.mem-master-port::system.pc.south_bridge.io_apic.pio           14                       # Packet count per connected master and slave (bytes)
system.iobus.pkt_count_system.ruby.l1_cntrl3.sequencer.mem-master-port::system.pc.com_1.pio          254                       # Packet count per connected master and slave (bytes)
system.iobus.pkt_count_system.ruby.l1_cntrl3.sequencer.mem-master-port::system.ruby.l1_cntrl0.sequencer.pio-slave-port            2                       # Packet count per connected master and slave (bytes)
system.iobus.pkt_count_system.ruby.l1_cntrl3.sequencer.mem-master-port::system.ruby.l1_cntrl3.sequencer.pio-slave-port         1974                       # Packet count per connected master and slave (bytes)
system.iobus.pkt_count_system.ruby.l1_cntrl3.sequencer.mem-master-port::total         2256                       # Packet count per connected master and slave (bytes)
system.iobus.pkt_count::total                    8564                       # Packet count per connected master and slave (bytes)
system.iobus.pkt_size_system.pc.south_bridge.io_apic.int_master::system.ruby.l1_cntrl0.sequencer.pio-slave-port           12                       # Cumulative packet size per connected master and slave (bytes)
system.iobus.pkt_size_system.pc.south_bridge.io_apic.int_master::system.ruby.l1_cntrl1.sequencer.pio-slave-port           12                       # Cumulative packet size per connected master and slave (bytes)
system.iobus.pkt_size_system.pc.south_bridge.io_apic.int_master::system.ruby.l1_cntrl2.sequencer.pio-slave-port            8                       # Cumulative packet size per connected master and slave (bytes)
system.iobus.pkt_size_system.pc.south_bridge.io_apic.int_master::system.ruby.l1_cntrl3.sequencer.pio-slave-port           12                       # Cumulative packet size per connected master and slave (bytes)
system.iobus.pkt_size_system.pc.south_bridge.io_apic.int_master::total           44                       # Cumulative packet size per connected master and slave (bytes)
system.iobus.pkt_size_system.ruby.l1_cntrl0.sequencer.mem-master-port::system.pc.south_bridge.ide.pio           26                       # Cumulative packet size per connected master and slave (bytes)
system.iobus.pkt_size_system.ruby.l1_cntrl0.sequencer.mem-master-port::system.pc.south_bridge.io_apic.pio           28                       # Cumulative packet size per connected master and slave (bytes)
system.iobus.pkt_size_system.ruby.l1_cntrl0.sequencer.mem-master-port::system.pc.com_1.pio           11                       # Cumulative packet size per connected master and slave (bytes)
system.iobus.pkt_size_system.ruby.l1_cntrl0.sequencer.mem-master-port::system.ruby.l1_cntrl0.sequencer.pio-slave-port         3968                       # Cumulative packet size per connected master and slave (bytes)
system.iobus.pkt_size_system.ruby.l1_cntrl0.sequencer.mem-master-port::system.ruby.l1_cntrl1.sequencer.pio-slave-port            4                       # Cumulative packet size per connected master and slave (bytes)
system.iobus.pkt_size_system.ruby.l1_cntrl0.sequencer.mem-master-port::system.ruby.l1_cntrl2.sequencer.pio-slave-port            4                       # Cumulative packet size per connected master and slave (bytes)
system.iobus.pkt_size_system.ruby.l1_cntrl0.sequencer.mem-master-port::system.ruby.l1_cntrl3.sequencer.pio-slave-port            4                       # Cumulative packet size per connected master and slave (bytes)
system.iobus.pkt_size_system.ruby.l1_cntrl0.sequencer.mem-master-port::total         4045                       # Cumulative packet size per connected master and slave (bytes)
system.iobus.pkt_size_system.ruby.l1_cntrl1.sequencer.mem-master-port::system.pc.south_bridge.io_apic.pio           44                       # Cumulative packet size per connected master and slave (bytes)
system.iobus.pkt_size_system.ruby.l1_cntrl1.sequencer.mem-master-port::system.pc.com_1.pio           82                       # Cumulative packet size per connected master and slave (bytes)
system.iobus.pkt_size_system.ruby.l1_cntrl1.sequencer.mem-master-port::system.ruby.l1_cntrl1.sequencer.pio-slave-port         3956                       # Cumulative packet size per connected master and slave (bytes)
system.iobus.pkt_size_system.ruby.l1_cntrl1.sequencer.mem-master-port::system.ruby.l1_cntrl2.sequencer.pio-slave-port            4                       # Cumulative packet size per connected master and slave (bytes)
system.iobus.pkt_size_system.ruby.l1_cntrl1.sequencer.mem-master-port::total         4086                       # Cumulative packet size per connected master and slave (bytes)
system.iobus.pkt_size_system.ruby.l1_cntrl2.sequencer.mem-master-port::system.pc.south_bridge.ide.pio           20                       # Cumulative packet size per connected master and slave (bytes)
system.iobus.pkt_size_system.ruby.l1_cntrl2.sequencer.mem-master-port::system.pc.south_bridge.io_apic.pio           32                       # Cumulative packet size per connected master and slave (bytes)
system.iobus.pkt_size_system.ruby.l1_cntrl2.sequencer.mem-master-port::system.ruby.l1_cntrl1.sequencer.pio-slave-port           12                       # Cumulative packet size per connected master and slave (bytes)
system.iobus.pkt_size_system.ruby.l1_cntrl2.sequencer.mem-master-port::system.ruby.l1_cntrl2.sequencer.pio-slave-port         3980                       # Cumulative packet size per connected master and slave (bytes)
system.iobus.pkt_size_system.ruby.l1_cntrl2.sequencer.mem-master-port::system.ruby.l1_cntrl3.sequencer.pio-slave-port            4                       # Cumulative packet size per connected master and slave (bytes)
system.iobus.pkt_size_system.ruby.l1_cntrl2.sequencer.mem-master-port::total         4048                       # Cumulative packet size per connected master and slave (bytes)
system.iobus.pkt_size_system.ruby.l1_cntrl3.sequencer.mem-master-port::system.pc.south_bridge.ide.pio            6                       # Cumulative packet size per connected master and slave (bytes)
system.iobus.pkt_size_system.ruby.l1_cntrl3.sequencer.mem-master-port::system.pc.south_bridge.io_apic.pio           28                       # Cumulative packet size per connected master and slave (bytes)
system.iobus.pkt_size_system.ruby.l1_cntrl3.sequencer.mem-master-port::system.pc.com_1.pio          127                       # Cumulative packet size per connected master and slave (bytes)
system.iobus.pkt_size_system.ruby.l1_cntrl3.sequencer.mem-master-port::system.ruby.l1_cntrl0.sequencer.pio-slave-port            4                       # Cumulative packet size per connected master and slave (bytes)
system.iobus.pkt_size_system.ruby.l1_cntrl3.sequencer.mem-master-port::system.ruby.l1_cntrl3.sequencer.pio-slave-port         3948                       # Cumulative packet size per connected master and slave (bytes)
system.iobus.pkt_size_system.ruby.l1_cntrl3.sequencer.mem-master-port::total         4113                       # Cumulative packet size per connected master and slave (bytes)
system.iobus.pkt_size::total                    16336                       # Cumulative packet size per connected master and slave (bytes)
system.iobus.reqLayer2.occupancy                81500                       # Layer occupancy (ticks)
system.iobus.reqLayer2.utilization                0.0                       # Layer utilization (%)
system.iobus.reqLayer8.occupancy                57494                       # Layer occupancy (ticks)
system.iobus.reqLayer8.utilization                0.0                       # Layer utilization (%)
system.iobus.reqLayer12.occupancy              283000                       # Layer occupancy (ticks)
system.iobus.reqLayer12.utilization               0.0                       # Layer utilization (%)
system.iobus.reqLayer17.occupancy             2403497                       # Layer occupancy (ticks)
system.iobus.reqLayer17.utilization               0.0                       # Layer utilization (%)
system.iobus.reqLayer18.occupancy             2394500                       # Layer occupancy (ticks)
system.iobus.reqLayer18.utilization               0.0                       # Layer utilization (%)
system.iobus.reqLayer19.occupancy             2726021                       # Layer occupancy (ticks)
system.iobus.reqLayer19.utilization               0.0                       # Layer utilization (%)
system.iobus.reqLayer20.occupancy             2384499                       # Layer occupancy (ticks)
system.iobus.reqLayer20.utilization               0.0                       # Layer utilization (%)
system.iobus.respLayer0.occupancy               14998                       # Layer occupancy (ticks)
system.iobus.respLayer0.utilization               0.0                       # Layer utilization (%)
system.iobus.respLayer2.occupancy             1554000                       # Layer occupancy (ticks)
system.iobus.respLayer2.utilization               0.0                       # Layer utilization (%)
system.iobus.respLayer4.occupancy             1642500                       # Layer occupancy (ticks)
system.iobus.respLayer4.utilization               0.0                       # Layer utilization (%)
system.iobus.respLayer6.occupancy             1534000                       # Layer occupancy (ticks)
system.iobus.respLayer6.utilization               0.0                       # Layer utilization (%)
system.iobus.respLayer8.occupancy             1724500                       # Layer occupancy (ticks)
system.iobus.respLayer8.utilization               0.0                       # Layer utilization (%)
system.pc.south_bridge.ide.disks.dma_read_full_pages            1                       # Number of full page size DMA reads (not PRD).
system.pc.south_bridge.ide.disks.dma_read_bytes         4096                       # Number of bytes transfered via DMA reads (not PRD).
system.pc.south_bridge.ide.disks.dma_read_txs            1                       # Number of DMA read transactions (not PRD).
system.pc.south_bridge.ide.disks.dma_write_full_pages           24                       # Number of full page size DMA writes.
system.pc.south_bridge.ide.disks.dma_write_bytes        98304                       # Number of bytes transfered via DMA writes.
system.pc.south_bridge.ide.disks.dma_write_txs           24                       # Number of DMA write transactions.
system.ruby.clk_domain.clock                      500                       # Clock period in ticks
system.ruby.delayHist::bucket_size                  4                       # delay histogram for all message
system.ruby.delayHist::max_bucket                  39                       # delay histogram for all message
system.ruby.delayHist::samples               20763991                       # delay histogram for all message
system.ruby.delayHist::mean                  0.431109                       # delay histogram for all message
system.ruby.delayHist::stdev                 1.803198                       # delay histogram for all message
system.ruby.delayHist                    |    19650917     94.64%     94.64% |        2000      0.01%     94.65% |     1110690      5.35%    100.00% |         110      0.00%    100.00% |         253      0.00%    100.00% |           8      0.00%    100.00% |           8      0.00%    100.00% |           4      0.00%    100.00% |           1      0.00%    100.00% |           0      0.00%    100.00% # delay histogram for all message
system.ruby.delayHist::total                 20763991                       # delay histogram for all message
system.ruby.outstanding_req_hist_seqr::bucket_size            1                      
system.ruby.outstanding_req_hist_seqr::max_bucket            9                      
system.ruby.outstanding_req_hist_seqr::samples   3806004584                      
system.ruby.outstanding_req_hist_seqr::mean     1.000000                      
system.ruby.outstanding_req_hist_seqr::gmean     1.000000                      
system.ruby.outstanding_req_hist_seqr::stdev     0.000222                      
system.ruby.outstanding_req_hist_seqr    |           0      0.00%      0.00% |  3806004397    100.00%    100.00% |         187      0.00%    100.00% |           0      0.00%    100.00% |           0      0.00%    100.00% |           0      0.00%    100.00% |           0      0.00%    100.00% |           0      0.00%    100.00% |           0      0.00%    100.00% |           0      0.00%    100.00%
system.ruby.outstanding_req_hist_seqr::total   3806004584                      
system.ruby.latency_hist_seqr::bucket_size          256                      
system.ruby.latency_hist_seqr::max_bucket         2559                      
system.ruby.latency_hist_seqr::samples     3806004584                      
system.ruby.latency_hist_seqr::mean          1.068020                      
system.ruby.latency_hist_seqr::gmean         1.003786                      
system.ruby.latency_hist_seqr::stdev         3.342424                      
system.ruby.latency_hist_seqr            |  3805928648    100.00%    100.00% |       53595      0.00%    100.00% |       21435      0.00%    100.00% |         511      0.00%    100.00% |         375      0.00%    100.00% |          19      0.00%    100.00% |           1      0.00%    100.00% |           0      0.00%    100.00% |           0      0.00%    100.00% |           0      0.00%    100.00%
system.ruby.latency_hist_seqr::total       3806004584                      
system.ruby.hit_latency_hist_seqr::bucket_size            1                      
system.ruby.hit_latency_hist_seqr::max_bucket            9                      
system.ruby.hit_latency_hist_seqr::samples   3802056623                      
system.ruby.hit_latency_hist_seqr::mean             1                      
system.ruby.hit_latency_hist_seqr::gmean            1                      
[...]
system.ruby.DMA_Controller.WriteRequest  |        1664    100.00%    100.00% |           0      0.00%    100.00%
system.ruby.DMA_Controller.WriteRequest::total         1664                      
system.ruby.DMA_Controller.Data          |          91    100.00%    100.00% |           0      0.00%    100.00%
system.ruby.DMA_Controller.Data::total             91                      
system.ruby.DMA_Controller.Ack           |        1664    100.00%    100.00% |           0      0.00%    100.00%
system.ruby.DMA_Controller.Ack::total            1664                      
system.ruby.DMA_Controller.READY.ReadRequest |          91    100.00%    100.00% |           0      0.00%    100.00%
system.ruby.DMA_Controller.READY.ReadRequest::total           91                      
system.ruby.DMA_Controller.READY.WriteRequest |        1664    100.00%    100.00% |           0      0.00%    100.00%
system.ruby.DMA_Controller.READY.WriteRequest::total         1664                      
system.ruby.DMA_Controller.BUSY_RD.Data  |          91    100.00%    100.00% |           0      0.00%    100.00%
system.ruby.DMA_Controller.BUSY_RD.Data::total           91                      
system.ruby.DMA_Controller.BUSY_WR.Ack   |        1664    100.00%    100.00% |           0      0.00%    100.00%
system.ruby.DMA_Controller.BUSY_WR.Ack::total         1664                      
system.ruby.L1Cache_Controller.Load      |     2000000      0.55%      0.55% |     1135227      0.31%      0.86% |   360101331     98.69%     99.55% |     1639841      0.45%    100.00%
system.ruby.L1Cache_Controller.Load::total    364876399                      
system.ruby.L1Cache_Controller.Ifetch    |    10238793      0.00%      0.00% |     5216649      0.00%      0.00% |18446744072788504576    100.00%    100.00% |     8265226      0.00%    100.00%
system.ruby.L1Cache_Controller.Ifetch::total 18446744072812226560                      
system.ruby.L1Cache_Controller.Store     |     1548142      2.63%      2.63% |      837162      1.42%      4.06% |    55195239     93.88%     97.94% |     1212393      2.06%    100.00%
system.ruby.L1Cache_Controller.Store::total     58792936                      
system.ruby.L1Cache_Controller.Inv       |       38656     27.90%     27.90% |       34179     24.67%     52.57% |       30513     22.02%     74.59% |       35205     25.41%    100.00%
system.ruby.L1Cache_Controller.Inv::total       138553                      
system.ruby.L1Cache_Controller.L1_Replacement |      141520      3.52%      3.52% |       78967      1.96%      5.48% |     3690265     91.73%     97.21% |      112043      2.79%    100.00%
system.ruby.L1Cache_Controller.L1_Replacement::total      4022795                      
system.ruby.L1Cache_Controller.Fwd_GETX  |        2037     27.71%     27.71% |        1123     15.27%     42.98% |        1895     25.78%     68.76% |        2297     31.24%    100.00%
system.ruby.L1Cache_Controller.Fwd_GETX::total         7352                      
system.ruby.L1Cache_Controller.Fwd_GETS  |       12088     37.45%     37.45% |        6575     20.37%     57.82% |        5206     16.13%     73.96% |        8406     26.04%    100.00%
system.ruby.L1Cache_Controller.Fwd_GETS::total        32275                      
system.ruby.L1Cache_Controller.Data      |        1223     29.74%     29.74% |         973     23.66%     53.40% |         696     16.93%     70.33% |        1220     29.67%    100.00%
system.ruby.L1Cache_Controller.Data::total         4112                      
system.ruby.L1Cache_Controller.Data_Exclusive |       28739      1.05%      1.05% |       13723      0.50%      1.55% |     2664392     97.47%     99.02% |       26669      0.98%    100.00%
system.ruby.L1Cache_Controller.Data_Exclusive::total      2733523                      
system.ruby.L1Cache_Controller.DataS_fromL1 |        8507     26.36%     26.36% |       11422     35.39%     61.75% |        3400     10.53%     72.28% |        8946     27.72%    100.00%
system.ruby.L1Cache_Controller.DataS_fromL1::total        32275                      
system.ruby.L1Cache_Controller.Data_all_Acks |      119208      9.01%      9.01% |       73725      5.57%     14.58% |     1033298     78.11%     92.69% |       96671      7.31%    100.00%
system.ruby.L1Cache_Controller.Data_all_Acks::total      1322902                      
system.ruby.L1Cache_Controller.Ack       |       24345     47.24%     47.24% |        8172     15.86%     63.09% |        9406     18.25%     81.34% |        9617     18.66%    100.00%
system.ruby.L1Cache_Controller.Ack::total        51540                      
system.ruby.L1Cache_Controller.Ack_all   |       11692     41.64%     41.64% |        5356     19.08%     60.72% |        4422     15.75%     76.47% |        6607     23.53%    100.00%
system.ruby.L1Cache_Controller.Ack_all::total        28077                      
system.ruby.L1Cache_Controller.WB_Ack    |       40829      1.25%      1.25% |       15531      0.48%      1.73% |     3177556     97.32%     99.05% |       31035      0.95%    100.00%
system.ruby.L1Cache_Controller.WB_Ack::total      3264951                      
system.ruby.L1Cache_Controller.NP.Load   |       44383      1.59%      1.59% |       27888      1.00%      2.58% |     2685638     95.98%     98.57% |       40071      1.43%    100.00%
system.ruby.L1Cache_Controller.NP.Load::total      2797980                      
system.ruby.L1Cache_Controller.NP.Ifetch |       77471     11.60%     11.60% |       42622      6.38%     17.99% |      487341     73.00%     90.99% |       60177      9.01%    100.00%
system.ruby.L1Cache_Controller.NP.Ifetch::total       667611                      
system.ruby.L1Cache_Controller.NP.Store  |       19669      3.52%      3.52% |        9847      1.76%      5.28% |      517286     92.45%     97.72% |       12743      2.28%    100.00%
system.ruby.L1Cache_Controller.NP.Store::total       559545                      
system.ruby.L1Cache_Controller.NP.Inv    |       11762     31.07%     31.07% |        6214     16.41%     47.48% |       12378     32.70%     80.18% |        7503     19.82%    100.00%
system.ruby.L1Cache_Controller.NP.Inv::total        37857                      
system.ruby.L1Cache_Controller.I.Load    |        5741     18.77%     18.77% |       10571     34.56%     53.33% |        3217     10.52%     63.84% |       11060     36.16%    100.00%
system.ruby.L1Cache_Controller.I.Load::total        30589                      
system.ruby.L1Cache_Controller.I.Ifetch  |        7157     26.79%     26.79% |        6100     22.83%     49.62% |        7488     28.03%     77.65% |        5970     22.35%    100.00%
system.ruby.L1Cache_Controller.I.Ifetch::total        26715                      
system.ruby.L1Cache_Controller.I.Store   |        3254     31.38%     31.38% |        2814     27.14%     58.52% |         816      7.87%     66.39% |        3485     33.61%    100.00%
system.ruby.L1Cache_Controller.I.Store::total        10369                      
system.ruby.L1Cache_Controller.I.L1_Replacement |       12106     30.68%     30.68% |        9859     24.99%     55.67% |        8270     20.96%     76.63% |        9219     23.37%    100.00%
system.ruby.L1Cache_Controller.I.L1_Replacement::total        39454                      
system.ruby.L1Cache_Controller.S.Load    |      281833     30.09%     30.09% |      227162     24.25%     54.34% |      143876     15.36%     69.70% |      283827     30.30%    100.00%
system.ruby.L1Cache_Controller.S.Load::total       936698                      
system.ruby.L1Cache_Controller.S.Ifetch  |    10154165      0.00%      0.00% |     5167927      0.00%      0.00% |18446744072788008960    100.00%    100.00% |     8199077      0.00%    100.00%
system.ruby.L1Cache_Controller.S.Ifetch::total 18446744072811528192                      
system.ruby.L1Cache_Controller.S.Store   |       10471     43.69%     43.69% |        4384     18.29%     61.98% |        3726     15.55%     77.52% |        5387     22.48%    100.00%
system.ruby.L1Cache_Controller.S.Store::total        23968                      
system.ruby.L1Cache_Controller.S.Inv     |       18875     23.87%     23.87% |       22020     27.85%     51.72% |       16199     20.49%     72.21% |       21969     27.79%    100.00%
system.ruby.L1Cache_Controller.S.Inv::total        79063                      
system.ruby.L1Cache_Controller.S.L1_Replacement |       88585     12.33%     12.33% |       53577      7.46%     19.79% |      504439     70.22%     90.01% |       71789      9.99%    100.00%
system.ruby.L1Cache_Controller.S.L1_Replacement::total       718390                      
system.ruby.L1Cache_Controller.E.Load    |      257783      0.15%      0.15% |      148367      0.09%      0.24% |   168269973     99.61%     99.85% |      258833      0.15%    100.00%
system.ruby.L1Cache_Controller.E.Load::total    168934956                      
system.ruby.L1Cache_Controller.E.Store   |       11769      2.03%      2.03% |        3157      0.54%      2.57% |      555789     95.87%     98.45% |        9004      1.55%    100.00%
system.ruby.L1Cache_Controller.E.Store::total       579719                      
system.ruby.L1Cache_Controller.E.Inv     |        2796     35.80%     35.80% |        1902     24.35%     60.15% |        1170     14.98%     75.13% |        1942     24.87%    100.00%
system.ruby.L1Cache_Controller.E.Inv::total         7810                      
system.ruby.L1Cache_Controller.E.L1_Replacement |       11062      0.52%      0.52% |        4401      0.21%      0.73% |     2106387     98.78%     99.51% |       10543      0.49%    100.00%
system.ruby.L1Cache_Controller.E.L1_Replacement::total      2132393                      
system.ruby.L1Cache_Controller.E.Fwd_GETX |         648     39.58%     39.58% |         143      8.74%     48.32% |          91      5.56%     53.88% |         755     46.12%    100.00%
system.ruby.L1Cache_Controller.E.Fwd_GETX::total         1637                      
system.ruby.L1Cache_Controller.E.Fwd_GETS |        2913     25.32%     25.32% |        3314     28.81%     54.13% |         894      7.77%     61.90% |        4383     38.10%    100.00%
system.ruby.L1Cache_Controller.E.Fwd_GETS::total        11504                      
system.ruby.L1Cache_Controller.M.Load    |     1410260      0.73%      0.73% |      721239      0.38%      1.11% |   188998627     98.35%     99.46% |     1046050      0.54%    100.00%
system.ruby.L1Cache_Controller.M.Load::total    192176176                      
system.ruby.L1Cache_Controller.M.Store   |     1502979      2.61%      2.61% |      816960      1.42%      4.03% |    54117622     93.92%     97.95% |     1181774      2.05%    100.00%
system.ruby.L1Cache_Controller.M.Store::total     57619335                      
system.ruby.L1Cache_Controller.M.Inv     |        5221     37.78%     37.78% |        4042     29.25%     67.03% |         766      5.54%     72.57% |        3791     27.43%    100.00%
system.ruby.L1Cache_Controller.M.Inv::total        13820                      
system.ruby.L1Cache_Controller.M.L1_Replacement |       29767      2.63%      2.63% |       11130      0.98%      3.61% |     1071169     94.58%     98.19% |       20492      1.81%    100.00%
system.ruby.L1Cache_Controller.M.L1_Replacement::total      1132558                      
system.ruby.L1Cache_Controller.M.Fwd_GETX |        1389     24.30%     24.30% |         980     17.15%     41.45% |        1804     31.57%     73.02% |        1542     26.98%    100.00%
system.ruby.L1Cache_Controller.M.Fwd_GETX::total         5715                      
system.ruby.L1Cache_Controller.M.Fwd_GETS |        9175     44.17%     44.17% |        3261     15.70%     59.87% |        4312     20.76%     80.63% |        4023     19.37%    100.00%
system.ruby.L1Cache_Controller.M.Fwd_GETS::total        20771                      
system.ruby.L1Cache_Controller.IS.Data_Exclusive |       28739      1.05%      1.05% |       13723      0.50%      1.55% |     2664392     97.47%     99.02% |       26669      0.98%    100.00%
system.ruby.L1Cache_Controller.IS.Data_Exclusive::total      2733523                      
system.ruby.L1Cache_Controller.IS.DataS_fromL1 |        8507     26.36%     26.36% |       11422     35.39%     61.75% |        3400     10.53%     72.28% |        8946     27.72%    100.00%
system.ruby.L1Cache_Controller.IS.DataS_fromL1::total        32275                      
system.ruby.L1Cache_Controller.IS.Data_all_Acks |       97506     12.88%     12.88% |       62036      8.19%     21.07% |      515892     68.14%     89.21% |       81663     10.79%    100.00%
system.ruby.L1Cache_Controller.IS.Data_all_Acks::total       757097                      
system.ruby.L1Cache_Controller.IM.Data   |        1223     29.74%     29.74% |         973     23.66%     53.40% |         696     16.93%     70.33% |        1220     29.67%    100.00%
system.ruby.L1Cache_Controller.IM.Data::total         4112                      
system.ruby.L1Cache_Controller.IM.Data_all_Acks |       21702      3.84%      3.84% |       11689      2.07%      5.90% |      517406     91.45%     97.35% |       15008      2.65%    100.00%
system.ruby.L1Cache_Controller.IM.Data_all_Acks::total       565805                      
system.ruby.L1Cache_Controller.SM.Inv    |           2     66.67%     66.67% |           1     33.33%    100.00% |           0      0.00%    100.00% |           0      0.00%    100.00%
system.ruby.L1Cache_Controller.SM.Inv::total            3                      
system.ruby.L1Cache_Controller.SM.Ack    |       24345     47.24%     47.24% |        8172     15.86%     63.09% |        9406     18.25%     81.34% |        9617     18.66%    100.00%
system.ruby.L1Cache_Controller.SM.Ack::total        51540                      
system.ruby.L1Cache_Controller.SM.Ack_all |       11692     41.64%     41.64% |        5356     19.08%     60.72% |        4422     15.75%     76.47% |        6607     23.53%    100.00%
system.ruby.L1Cache_Controller.SM.Ack_all::total        28077                      
system.ruby.L1Cache_Controller.M_I.Ifetch |           0      0.00%      0.00% |           0      0.00%      0.00% |           0      0.00%      0.00% |           2    100.00%    100.00%
system.ruby.L1Cache_Controller.M_I.Ifetch::total            2                      
system.ruby.L1Cache_Controller.M_I.WB_Ack |       40829      1.25%      1.25% |       15531      0.48%      1.73% |     3177556     97.32%     99.05% |       31035      0.95%    100.00%
system.ruby.L1Cache_Controller.M_I.WB_Ack::total      3264951                      
system.ruby.L2Cache_Controller.L1_GET_INSTR       694326      0.00%      0.00%
system.ruby.L2Cache_Controller.L1_GETS        2828994      0.00%      0.00%
system.ruby.L2Cache_Controller.L1_GETX         569925      0.00%      0.00%
system.ruby.L2Cache_Controller.L1_UPGRADE        23968      0.00%      0.00%
system.ruby.L2Cache_Controller.L1_PUTX        3264951      0.00%      0.00%
system.ruby.L2Cache_Controller.L2_Replacement       816048      0.00%      0.00%
system.ruby.L2Cache_Controller.L2_Replacement_clean       678153      0.00%      0.00%
system.ruby.L2Cache_Controller.Mem_Data       1511620      0.00%      0.00%
system.ruby.L2Cache_Controller.Mem_Ack        1494208      0.00%      0.00%
system.ruby.L2Cache_Controller.WB_Data          34591      0.00%      0.00%
system.ruby.L2Cache_Controller.WB_Data_clean        11504      0.00%      0.00%
system.ruby.L2Cache_Controller.Ack              31113      0.00%      0.00%
system.ruby.L2Cache_Controller.Ack_all          37968      0.00%      0.00%
system.ruby.L2Cache_Controller.Unblock          32275      0.00%      0.00%
system.ruby.L2Cache_Controller.Exclusive_Unblock      3327405      0.00%      0.00%
system.ruby.L2Cache_Controller.MEM_Inv             14      0.00%      0.00%
system.ruby.L2Cache_Controller.NP.L1_GET_INSTR        29021      0.00%      0.00%
system.ruby.L2Cache_Controller.NP.L1_GETS      1096950      0.00%      0.00%
system.ruby.L2Cache_Controller.NP.L1_GETX       385649      0.00%      0.00%
system.ruby.L2Cache_Controller.SS.L1_GET_INSTR       665288      0.00%      0.00%
system.ruby.L2Cache_Controller.SS.L1_GETS        62733      0.00%      0.00%
system.ruby.L2Cache_Controller.SS.L1_GETX         4112      0.00%      0.00%
system.ruby.L2Cache_Controller.SS.L1_UPGRADE        23965      0.00%      0.00%
system.ruby.L2Cache_Controller.SS.L2_Replacement          808      0.00%      0.00%
system.ruby.L2Cache_Controller.SS.L2_Replacement_clean        29350      0.00%      0.00%
system.ruby.L2Cache_Controller.M.L1_GET_INSTR           17      0.00%      0.00%
system.ruby.L2Cache_Controller.M.L1_GETS      1636592      0.00%      0.00%
system.ruby.L2Cache_Controller.M.L1_GETX       172804      0.00%      0.00%
system.ruby.L2Cache_Controller.M.L2_Replacement       813333      0.00%      0.00%
system.ruby.L2Cache_Controller.M.L2_Replacement_clean       629087      0.00%      0.00%
system.ruby.L2Cache_Controller.MT.L1_GETS        32275      0.00%      0.00%
system.ruby.L2Cache_Controller.MT.L1_GETX         7352      0.00%      0.00%
system.ruby.L2Cache_Controller.MT.L1_PUTX      3264951      0.00%      0.00%
system.ruby.L2Cache_Controller.MT.L2_Replacement         1907      0.00%      0.00%
system.ruby.L2Cache_Controller.MT.L2_Replacement_clean        19716      0.00%      0.00%
system.ruby.L2Cache_Controller.MT.MEM_Inv            7      0.00%      0.00%
system.ruby.L2Cache_Controller.M_I.L1_GETX            1      0.00%      0.00%
system.ruby.L2Cache_Controller.M_I.Mem_Ack      1494208      0.00%      0.00%
system.ruby.L2Cache_Controller.MT_I.WB_Data         1465      0.00%      0.00%
system.ruby.L2Cache_Controller.MT_I.Ack_all          449      0.00%      0.00%
system.ruby.L2Cache_Controller.MT_I.MEM_Inv            7      0.00%      0.00%
system.ruby.L2Cache_Controller.MCT_I.WB_Data        12355      0.00%      0.00%
system.ruby.L2Cache_Controller.MCT_I.Ack_all         7361      0.00%      0.00%
system.ruby.L2Cache_Controller.I_I.Ack          29972      0.00%      0.00%
system.ruby.L2Cache_Controller.I_I.Ack_all        29350      0.00%      0.00%
system.ruby.L2Cache_Controller.S_I.Ack           1141      0.00%      0.00%
system.ruby.L2Cache_Controller.S_I.Ack_all          808      0.00%      0.00%
system.ruby.L2Cache_Controller.ISS.L1_GETS           19      0.00%      0.00%
system.ruby.L2Cache_Controller.ISS.Mem_Data      1096931      0.00%      0.00%
system.ruby.L2Cache_Controller.IS.Mem_Data        29040      0.00%      0.00%
system.ruby.L2Cache_Controller.IM.Mem_Data       385649      0.00%      0.00%
system.ruby.L2Cache_Controller.SS_MB.L1_GETS           55      0.00%      0.00%
system.ruby.L2Cache_Controller.SS_MB.L1_GETX            3      0.00%      0.00%
system.ruby.L2Cache_Controller.SS_MB.L1_UPGRADE            3      0.00%      0.00%
system.ruby.L2Cache_Controller.SS_MB.Exclusive_Unblock        28077      0.00%      0.00%
system.ruby.L2Cache_Controller.MT_MB.L1_GETS          366      0.00%      0.00%
system.ruby.L2Cache_Controller.MT_MB.L1_GETX            3      0.00%      0.00%
system.ruby.L2Cache_Controller.MT_MB.Exclusive_Unblock      3299328      0.00%      0.00%
system.ruby.L2Cache_Controller.MT_IIB.L1_GETS            4      0.00%      0.00%
system.ruby.L2Cache_Controller.MT_IIB.L1_GETX            1      0.00%      0.00%
system.ruby.L2Cache_Controller.MT_IIB.WB_Data        20760      0.00%      0.00%
system.ruby.L2Cache_Controller.MT_IIB.WB_Data_clean        11494      0.00%      0.00%
system.ruby.L2Cache_Controller.MT_IIB.Unblock           21      0.00%      0.00%
system.ruby.L2Cache_Controller.MT_IB.WB_Data           11      0.00%      0.00%
system.ruby.L2Cache_Controller.MT_IB.WB_Data_clean           10      0.00%      0.00%
system.ruby.L2Cache_Controller.MT_SB.Unblock        32254      0.00%      0.00%

---------- End Simulation Statistics   ----------
