
---------- Begin Simulation Statistics ----------
sim_seconds                                  2.394378                       # Number of seconds simulated
sim_ticks                                2394377668000                       # Number of ticks simulated
final_tick                               57344306072001                       # Number of ticks from beginning of simulation (restored from checkpoints and never reset)
sim_freq                                 1000000000000                       # Frequency of simulated ticks
host_inst_rate                                 163306                       # Simulator instruction rate (inst/s)
host_op_rate                                   296019                       # Simulator op (including micro ops) rate (op/s)
host_tick_rate                              297783693                       # Simulator tick rate (ticks/s)
host_mem_usage                                1870588                       # Number of bytes of host memory used
host_seconds                                  8040.66                       # Real time elapsed on the host
sim_insts                                  1313091525                       # Number of instructions simulated
sim_ops                                    2380191972                       # Number of ops (including micro ops) simulated
system.voltage_domain.voltage                       1                       # Voltage in Volts
system.clk_domain.clock                          1000                       # Clock period in ticks
system.mem_ctrls.bytes_read::ruby.dir_cntrl0    239670528                       # Number of bytes read from this memory
system.mem_ctrls.bytes_read::total          239670528                       # Number of bytes read from this memory
system.mem_ctrls.bytes_written::ruby.dir_cntrl0    238190336                       # Number of bytes written to this memory
system.mem_ctrls.bytes_written::total       238190336                       # Number of bytes written to this memory
system.mem_ctrls.num_reads::ruby.dir_cntrl0      1872426                       # Number of read requests responded to by this memory
system.mem_ctrls.num_reads::total             1872426                       # Number of read requests responded to by this memory
system.mem_ctrls.num_writes::ruby.dir_cntrl0      1860862                       # Number of write requests responded to by this memory
system.mem_ctrls.num_writes::total            1860862                       # Number of write requests responded to by this memory
system.mem_ctrls.bw_read::ruby.dir_cntrl0    100097212                       # Total read bandwidth from this memory (bytes/s)
system.mem_ctrls.bw_read::total             100097212                       # Total read bandwidth from this memory (bytes/s)
system.mem_ctrls.bw_write::ruby.dir_cntrl0     99479017                       # Write bandwidth from this memory (bytes/s)
system.mem_ctrls.bw_write::total             99479017                       # Write bandwidth from this memory (bytes/s)
system.mem_ctrls.bw_total::ruby.dir_cntrl0    199576228                       # Total bandwidth to/from this memory (bytes/s)
system.mem_ctrls.bw_total::total            199576228                       # Total bandwidth to/from this memory (bytes/s)
system.mem_ctrls.readReqs                     1872426                       # Number of read requests accepted
system.mem_ctrls.writeReqs                    1860862                       # Number of write requests accepted
system.mem_ctrls.readBursts                   3744852                       # Number of DRAM read bursts, including those serviced by the write queue
system.mem_ctrls.writeBursts                  3721724                       # Number of DRAM write bursts, including those merged in the write queue
system.mem_ctrls.bytesReadDRAM              224924288                       # Total number of bytes read from DRAM
system.mem_ctrls.bytesReadWrQ                14746240                       # Total number of bytes read from write queue
system.mem_ctrls.bytesWritten               228882944                       # Total number of bytes written to DRAM
system.mem_ctrls.bytesReadSys               239670528                       # Total read bytes from the system interface side
system.mem_ctrls.bytesWrittenSys            238190336                       # Total written bytes from the system interface side
system.mem_ctrls.servicedByWrQ                 230410                       # Number of DRAM read bursts serviced by the write queue
system.mem_ctrls.mergedWrBursts                145424                       # Number of DRAM write bursts merged with an existing one
system.mem_ctrls.neitherReadNorWriteReqs            0                       # Number of requests that are neither read nor write
system.mem_ctrls.perBankRdBursts::0            241943                       # Per bank write bursts
system.mem_ctrls.perBankRdBursts::1            238233                       # Per bank write bursts
system.mem_ctrls.perBankRdBursts::2            202825                       # Per bank write bursts
system.mem_ctrls.perBankRdBursts::3            214824                       # Per bank write bursts
system.mem_ctrls.perBankRdBursts::4            222154                       # Per bank write bursts
system.mem_ctrls.perBankRdBursts::5            223030                       # Per bank write bursts
system.mem_ctrls.perBankRdBursts::6            225072                       # Per bank write bursts
system.mem_ctrls.perBankRdBursts::7            217846                       # Per bank write bursts
system.mem_ctrls.perBankRdBursts::8            241808                       # Per bank write bursts
system.mem_ctrls.perBankRdBursts::9            209313                       # Per bank write bursts
system.mem_ctrls.perBankRdBursts::10           199321                       # Per bank write bursts
system.mem_ctrls.perBankRdBursts::11           204322                       # Per bank write bursts
system.mem_ctrls.perBankRdBursts::12           217147                       # Per bank write bursts
system.mem_ctrls.perBankRdBursts::13           217316                       # Per bank write bursts
system.mem_ctrls.perBankRdBursts::14           217798                       # Per bank write bursts
system.mem_ctrls.perBankRdBursts::15           221490                       # Per bank write bursts
system.mem_ctrls.perBankWrBursts::0            249052                       # Per bank write bursts
system.mem_ctrls.perBankWrBursts::1            250288                       # Per bank write bursts
system.mem_ctrls.perBankWrBursts::2            205685                       # Per bank write bursts
system.mem_ctrls.perBankWrBursts::3            218630                       # Per bank write bursts
system.mem_ctrls.perBankWrBursts::4            226869                       # Per bank write bursts
system.mem_ctrls.perBankWrBursts::5            228546                       # Per bank write bursts
system.mem_ctrls.perBankWrBursts::6            227187                       # Per bank write bursts
system.mem_ctrls.perBankWrBursts::7            225201                       # Per bank write bursts
system.mem_ctrls.perBankWrBursts::8            246862                       # Per bank write bursts
system.mem_ctrls.perBankWrBursts::9            212300                       # Per bank write bursts
system.mem_ctrls.perBankWrBursts::10           198886                       # Per bank write bursts
system.mem_ctrls.perBankWrBursts::11           206622                       # Per bank write bursts
system.mem_ctrls.perBankWrBursts::12           218592                       # Per bank write bursts
system.mem_ctrls.perBankWrBursts::13           219072                       # Per bank write bursts
system.mem_ctrls.perBankWrBursts::14           218635                       # Per bank write bursts
system.mem_ctrls.perBankWrBursts::15           223869                       # Per bank write bursts
system.mem_ctrls.numRdRetry                         0                       # Number of times read queue was full causing retry
system.mem_ctrls.numWrRetry                         0                       # Number of times write queue was full causing retry
system.mem_ctrls.totGap                  2394377866500                       # Total gap between requests
system.mem_ctrls.readPktSize::0                     0                       # Read request sizes (log2)
system.mem_ctrls.readPktSize::1                     0                       # Read request sizes (log2)
system.mem_ctrls.readPktSize::2                     0                       # Read request sizes (log2)
system.mem_ctrls.readPktSize::3                     0                       # Read request sizes (log2)
system.mem_ctrls.readPktSize::4                     0                       # Read request sizes (log2)
system.mem_ctrls.readPktSize::5                     0                       # Read request sizes (log2)
system.mem_ctrls.readPktSize::6               3744852                       # Read request sizes (log2)
system.mem_ctrls.writePktSize::0                    0                       # Write request sizes (log2)
system.mem_ctrls.writePktSize::1                    0                       # Write request sizes (log2)
system.mem_ctrls.writePktSize::2                    0                       # Write request sizes (log2)
system.mem_ctrls.writePktSize::3                    0                       # Write request sizes (log2)
system.mem_ctrls.writePktSize::4                    0                       # Write request sizes (log2)
system.mem_ctrls.writePktSize::5                    0                       # Write request sizes (log2)
system.mem_ctrls.writePktSize::6              3721724                       # Write request sizes (log2)
system.mem_ctrls.rdQLenPdf::0                 1746658                       # What read queue length does an incoming req see
system.mem_ctrls.rdQLenPdf::1                 1746216                       # What read queue length does an incoming req see
system.mem_ctrls.rdQLenPdf::2                   11162                       # What read queue length does an incoming req see
system.mem_ctrls.rdQLenPdf::3                    9866                       # What read queue length does an incoming req see
system.mem_ctrls.rdQLenPdf::4                     287                       # What read queue length does an incoming req see
system.mem_ctrls.rdQLenPdf::5                     248                       # What read queue length does an incoming req see
system.mem_ctrls.rdQLenPdf::6                       3                       # What read queue length does an incoming req see
system.mem_ctrls.rdQLenPdf::7                       2                       # What read queue length does an incoming req see
system.mem_ctrls.rdQLenPdf::8                       0                       # What read queue length does an incoming req see
system.mem_ctrls.rdQLenPdf::9                       0                       # What read queue length does an incoming req see
system.mem_ctrls.rdQLenPdf::10                      0                       # What read queue length does an incoming req see
system.mem_ctrls.rdQLenPdf::11                      0                       # What read queue length does an incoming req see
system.mem_ctrls.rdQLenPdf::12                      0                       # What read queue length does an incoming req see
system.mem_ctrls.rdQLenPdf::13                      0                       # What read queue length does an incoming req see
system.mem_ctrls.rdQLenPdf::14                      0                       # What read queue length does an incoming req see
system.mem_ctrls.rdQLenPdf::15                      0                       # What read queue length does an incoming req see
system.mem_ctrls.rdQLenPdf::16                      0                       # What read queue length does an incoming req see
system.mem_ctrls.rdQLenPdf::17                      0                       # What read queue length does an incoming req see
system.mem_ctrls.rdQLenPdf::18                      0                       # What read queue length does an incoming req see
system.mem_ctrls.rdQLenPdf::19                      0                       # What read queue length does an incoming req see
system.mem_ctrls.rdQLenPdf::20                      0                       # What read queue length does an incoming req see
system.mem_ctrls.rdQLenPdf::21                      0                       # What read queue length does an incoming req see
system.mem_ctrls.rdQLenPdf::22                      0                       # What read queue length does an incoming req see
system.mem_ctrls.rdQLenPdf::23                      0                       # What read queue length does an incoming req see
system.mem_ctrls.rdQLenPdf::24                      0                       # What read queue length does an incoming req see
system.mem_ctrls.rdQLenPdf::25                      0                       # What read queue length does an incoming req see
system.mem_ctrls.rdQLenPdf::26                      0                       # What read queue length does an incoming req see
system.mem_ctrls.rdQLenPdf::27                      0                       # What read queue length does an incoming req see
system.mem_ctrls.rdQLenPdf::28                      0                       # What read queue length does an incoming req see
system.mem_ctrls.rdQLenPdf::29                      0                       # What read queue length does an incoming req see
system.mem_ctrls.rdQLenPdf::30                      0                       # What read queue length does an incoming req see
system.mem_ctrls.rdQLenPdf::31                      0                       # What read queue length does an incoming req see
system.mem_ctrls.wrQLenPdf::0                       0                       # What write queue length does an incoming req see
system.mem_ctrls.wrQLenPdf::1                       0                       # What write queue length does an incoming req see
system.mem_ctrls.wrQLenPdf::2                       0                       # What write queue length does an incoming req see
system.mem_ctrls.wrQLenPdf::3                       0                       # What write queue length does an incoming req see
system.mem_ctrls.wrQLenPdf::4                       0                       # What write queue length does an incoming req see
system.mem_ctrls.wrQLenPdf::5                       0                       # What write queue length does an incoming req see
system.mem_ctrls.wrQLenPdf::6                       0                       # What write queue length does an incoming req see
system.mem_ctrls.wrQLenPdf::7                       0                       # What write queue length does an incoming req see
system.mem_ctrls.wrQLenPdf::8                       0                       # What write queue length does an incoming req see
system.mem_ctrls.wrQLenPdf::9                       0                       # What write queue length does an incoming req see
system.mem_ctrls.wrQLenPdf::10                      0                       # What write queue length does an incoming req see
system.mem_ctrls.wrQLenPdf::11                      0                       # What write queue length does an incoming req see
system.mem_ctrls.wrQLenPdf::12                      0                       # What write queue length does an incoming req see
system.mem_ctrls.wrQLenPdf::13                      0                       # What write queue length does an incoming req see
system.mem_ctrls.wrQLenPdf::14                      0                       # What write queue length does an incoming req see
system.mem_ctrls.wrQLenPdf::15                  13081                       # What write queue length does an incoming req see
system.mem_ctrls.wrQLenPdf::16                  14165                       # What write queue length does an incoming req see
system.mem_ctrls.wrQLenPdf::17                 187592                       # What write queue length does an incoming req see
system.mem_ctrls.wrQLenPdf::18                 219145                       # What write queue length does an incoming req see
system.mem_ctrls.wrQLenPdf::19                 222215                       # What write queue length does an incoming req see
system.mem_ctrls.wrQLenPdf::20                 222715                       # What write queue length does an incoming req see
system.mem_ctrls.wrQLenPdf::21                 223002                       # What write queue length does an incoming req see
system.mem_ctrls.wrQLenPdf::22                 223192                       # What write queue length does an incoming req see
system.mem_ctrls.wrQLenPdf::23                 222923                       # What write queue length does an incoming req see
system.mem_ctrls.wrQLenPdf::24                 222454                       # What write queue length does an incoming req see
system.mem_ctrls.wrQLenPdf::25                 222078                       # What write queue length does an incoming req see
system.mem_ctrls.wrQLenPdf::26                 221780                       # What write queue length does an incoming req see
system.mem_ctrls.wrQLenPdf::27                 221548                       # What write queue length does an incoming req see
system.mem_ctrls.wrQLenPdf::28                 221424                       # What write queue length does an incoming req see
system.mem_ctrls.wrQLenPdf::29                 221361                       # What write queue length does an incoming req see
system.mem_ctrls.wrQLenPdf::30                 221296                       # What write queue length does an incoming req see
system.mem_ctrls.wrQLenPdf::31                 221231                       # What write queue length does an incoming req see
system.mem_ctrls.wrQLenPdf::32                 221210                       # What write queue length does an incoming req see
system.mem_ctrls.wrQLenPdf::33                  33470                       # What write queue length does an incoming req see
system.mem_ctrls.wrQLenPdf::34                    188                       # What write queue length does an incoming req see
system.mem_ctrls.wrQLenPdf::35                     76                       # What write queue length does an incoming req see
system.mem_ctrls.wrQLenPdf::36                     65                       # What write queue length does an incoming req see
system.mem_ctrls.wrQLenPdf::37                     26                       # What write queue length does an incoming req see
system.mem_ctrls.wrQLenPdf::38                     22                       # What write queue length does an incoming req see
system.mem_ctrls.wrQLenPdf::39                     12                       # What write queue length does an incoming req see
system.mem_ctrls.wrQLenPdf::40                     12                       # What write queue length does an incoming req see
system.mem_ctrls.wrQLenPdf::41                      6                       # What write queue length does an incoming req see
system.mem_ctrls.wrQLenPdf::42                      4                       # What write queue length does an incoming req see
system.mem_ctrls.wrQLenPdf::43                      3                       # What write queue length does an incoming req see
system.mem_ctrls.wrQLenPdf::44                      3                       # What write queue length does an incoming req see
system.mem_ctrls.wrQLenPdf::45                      1                       # What write queue length does an incoming req see
system.mem_ctrls.wrQLenPdf::46                      0                       # What write queue length does an incoming req see
system.mem_ctrls.wrQLenPdf::47                      0                       # What write queue length does an incoming req see
system.mem_ctrls.wrQLenPdf::48                      0                       # What write queue length does an incoming req see
system.mem_ctrls.wrQLenPdf::49                      0                       # What write queue length does an incoming req see
system.mem_ctrls.wrQLenPdf::50                      0                       # What write queue length does an incoming req see
system.mem_ctrls.wrQLenPdf::51                      0                       # What write queue length does an incoming req see
system.mem_ctrls.wrQLenPdf::52                      0                       # What write queue length does an incoming req see
system.mem_ctrls.wrQLenPdf::53                      0                       # What write queue length does an incoming req see
system.mem_ctrls.wrQLenPdf::54                      0                       # What write queue length does an incoming req see
system.mem_ctrls.wrQLenPdf::55                      0                       # What write queue length does an incoming req see
system.mem_ctrls.wrQLenPdf::56                      0                       # What write queue length does an incoming req see
system.mem_ctrls.wrQLenPdf::57                      0                       # What write queue length does an incoming req see
system.mem_ctrls.wrQLenPdf::58                      0                       # What write queue length does an incoming req see
system.mem_ctrls.wrQLenPdf::59                      0                       # What write queue length does an incoming req see
system.mem_ctrls.wrQLenPdf::60                      0                       # What write queue length does an incoming req see
system.mem_ctrls.wrQLenPdf::61                      0                       # What write queue length does an incoming req see
system.mem_ctrls.wrQLenPdf::62                      0                       # What write queue length does an incoming req see
system.mem_ctrls.wrQLenPdf::63                      0                       # What write queue length does an incoming req see
system.mem_ctrls.bytesPerActivate::samples      1655678                       # Bytes accessed per row activation
system.mem_ctrls.bytesPerActivate::mean    274.090126                       # Bytes accessed per row activation
system.mem_ctrls.bytesPerActivate::gmean   212.439933                       # Bytes accessed per row activation
system.mem_ctrls.bytesPerActivate::stdev   221.746350                       # Bytes accessed per row activation
system.mem_ctrls.bytesPerActivate::0-127        80710      4.87%      4.87% # Bytes accessed per row activation
system.mem_ctrls.bytesPerActivate::128-255       807167     48.75%     53.63% # Bytes accessed per row activation
system.mem_ctrls.bytesPerActivate::256-383       310747     18.77%     72.39% # Bytes accessed per row activation
system.mem_ctrls.bytesPerActivate::384-511       170880     10.32%     82.72% # Bytes accessed per row activation
system.mem_ctrls.bytesPerActivate::512-639       127379      7.69%     90.41% # Bytes accessed per row activation
system.mem_ctrls.bytesPerActivate::640-767        65920      3.98%     94.39% # Bytes accessed per row activation
system.mem_ctrls.bytesPerActivate::768-895        23429      1.42%     95.81% # Bytes accessed per row activation
system.mem_ctrls.bytesPerActivate::896-1023        14324      0.87%     96.67% # Bytes accessed per row activation
system.mem_ctrls.bytesPerActivate::1024-1151        55122      3.33%    100.00% # Bytes accessed per row activation
system.mem_ctrls.bytesPerActivate::total      1655678                       # Bytes accessed per row activation
system.mem_ctrls.rdPerTurnAround::samples       221189                       # Reads before turning the bus around for writes
system.mem_ctrls.rdPerTurnAround::mean      15.888846                       # Reads before turning the bus around for writes
system.mem_ctrls.rdPerTurnAround::stdev      8.561144                       # Reads before turning the bus around for writes
system.mem_ctrls.rdPerTurnAround::0-63         221082     99.95%     99.95% # Reads before turning the bus around for writes
system.mem_ctrls.rdPerTurnAround::64-127           65      0.03%     99.98% # Reads before turning the bus around for writes
system.mem_ctrls.rdPerTurnAround::128-191            7      0.00%     99.98% # Reads before turning the bus around for writes
system.mem_ctrls.rdPerTurnAround::192-255            6      0.00%     99.99% # Reads before turning the bus around for writes
system.mem_ctrls.rdPerTurnAround::256-319            4      0.00%     99.99% # Reads before turning the bus around for writes
system.mem_ctrls.rdPerTurnAround::320-383            6      0.00%     99.99% # Reads before turning the bus around for writes
system.mem_ctrls.rdPerTurnAround::384-447            4      0.00%     99.99% # Reads before turning the bus around for writes
system.mem_ctrls.rdPerTurnAround::448-511            3      0.00%     99.99% # Reads before turning the bus around for writes
system.mem_ctrls.rdPerTurnAround::512-575            3      0.00%    100.00% # Reads before turning the bus around for writes
system.mem_ctrls.rdPerTurnAround::576-639            2      0.00%    100.00% # Reads before turning the bus around for writes
system.mem_ctrls.rdPerTurnAround::640-703            1      0.00%    100.00% # Reads before turning the bus around for writes
system.mem_ctrls.rdPerTurnAround::704-767            2      0.00%    100.00% # Reads before turning the bus around for writes
system.mem_ctrls.rdPerTurnAround::832-895            1      0.00%    100.00% # Reads before turning the bus around for writes
system.mem_ctrls.rdPerTurnAround::896-959            1      0.00%    100.00% # Reads before turning the bus around for writes
system.mem_ctrls.rdPerTurnAround::1664-1727            1      0.00%    100.00% # Reads before turning the bus around for writes
system.mem_ctrls.rdPerTurnAround::1856-1919            1      0.00%    100.00% # Reads before turning the bus around for writes
system.mem_ctrls.rdPerTurnAround::total        221189                       # Reads before turning the bus around for writes
system.mem_ctrls.wrPerTurnAround::samples       221189                       # Writes before turning the bus around for reads
system.mem_ctrls.wrPerTurnAround::mean      16.168507                       # Writes before turning the bus around for reads
system.mem_ctrls.wrPerTurnAround::gmean     16.155471                       # Writes before turning the bus around for reads
system.mem_ctrls.wrPerTurnAround::stdev      0.691596                       # Writes before turning the bus around for reads
system.mem_ctrls.wrPerTurnAround::16           206373     93.30%     93.30% # Writes before turning the bus around for reads
system.mem_ctrls.wrPerTurnAround::17              515      0.23%     93.53% # Writes before turning the bus around for reads
system.mem_ctrls.wrPerTurnAround::18            10182      4.60%     98.14% # Writes before turning the bus around for reads
system.mem_ctrls.wrPerTurnAround::19             1637      0.74%     98.88% # Writes before turning the bus around for reads
system.mem_ctrls.wrPerTurnAround::20             1696      0.77%     99.64% # Writes before turning the bus around for reads
system.mem_ctrls.wrPerTurnAround::21              234      0.11%     99.75% # Writes before turning the bus around for reads
system.mem_ctrls.wrPerTurnAround::22              423      0.19%     99.94% # Writes before turning the bus around for reads
system.mem_ctrls.wrPerTurnAround::23               91      0.04%     99.98% # Writes before turning the bus around for reads
system.mem_ctrls.wrPerTurnAround::24               23      0.01%     99.99% # Writes before turning the bus around for reads
system.mem_ctrls.wrPerTurnAround::25                1      0.00%     99.99% # Writes before turning the bus around for reads
system.mem_ctrls.wrPerTurnAround::26                7      0.00%    100.00% # Writes before turning the bus around for reads
system.mem_ctrls.wrPerTurnAround::27                1      0.00%    100.00% # Writes before turning the bus around for reads
system.mem_ctrls.wrPerTurnAround::28                3      0.00%    100.00% # Writes before turning the bus around for reads
system.mem_ctrls.wrPerTurnAround::29                1      0.00%    100.00% # Writes before turning the bus around for reads
system.mem_ctrls.wrPerTurnAround::30                1      0.00%    100.00% # Writes before turning the bus around for reads
system.mem_ctrls.wrPerTurnAround::32                1      0.00%    100.00% # Writes before turning the bus around for reads
system.mem_ctrls.wrPerTurnAround::total        221189                       # Writes before turning the bus around for reads
system.mem_ctrls.totQLat                  87674335209                       # Total ticks spent queuing
system.mem_ctrls.totMemAccLat            153570122709                       # Total ticks spent from burst creation until serviced by the DRAM
system.mem_ctrls.totBusLat                17572210000                       # Total ticks spent in databus transfers
system.mem_ctrls.avgQLat                     24946.87                       # Average queueing delay per DRAM burst
system.mem_ctrls.avgBusLat                    5000.00                       # Average bus latency per DRAM burst
system.mem_ctrls.avgMemAccLat                43696.87                       # Average memory access latency per DRAM burst
system.mem_ctrls.avgRdBW                        93.94                       # Average DRAM read bandwidth in MiByte/s
system.mem_ctrls.avgWrBW                        95.59                       # Average achieved write bandwidth in MiByte/s
system.mem_ctrls.avgRdBWSys                    100.10                       # Average system read bandwidth in MiByte/s
system.mem_ctrls.avgWrBWSys                     99.48                       # Average system write bandwidth in MiByte/s
system.mem_ctrls.peakBW                      12800.00                       # Theoretical peak bandwidth in MiByte/s
system.mem_ctrls.busUtil                         1.48                       # Data bus utilization in percentage
system.mem_ctrls.busUtilRead                     0.73                       # Data bus utilization in percentage for reads
system.mem_ctrls.busUtilWrite                    0.75                       # Data bus utilization in percentage for writes
system.mem_ctrls.avgRdQLen                       2.00                       # Average read queue length when enqueuing
system.mem_ctrls.avgWrQLen                      26.11                       # Average write queue length when enqueuing
system.mem_ctrls.readRowHits                  2789904                       # Number of row buffer hits during reads
system.mem_ctrls.writeRowHits                 2645146                       # Number of row buffer hits during writes
system.mem_ctrls.readRowHitRate                 79.38                       # Row buffer hit rate for reads
system.mem_ctrls.writeRowHitRate                73.96                       # Row buffer hit rate for writes
system.mem_ctrls.avgGap                     641359.00                       # Average gap between requests
system.mem_ctrls.pageHitRate                    76.65                       # Row buffer hit rate, read and write combined
system.mem_ctrls_0.actEnergy               6730917480                       # Energy for activate commands per rank (pJ)
system.mem_ctrls_0.preEnergy               3672623625                       # Energy for precharge commands per rank (pJ)
system.mem_ctrls_0.readEnergy             14673750000                       # Energy for read commands per rank (pJ)
system.mem_ctrls_0.writeEnergy            12496070880                       # Energy for write commands per rank (pJ)
system.mem_ctrls_0.refreshEnergy         157358635200                       # Energy for refresh commands per rank (pJ)
system.mem_ctrls_0.actBackEnergy         609340595445                       # Energy for active background per rank (pJ)
system.mem_ctrls_0.preBackEnergy         911023761750                       # Energy for precharge background per rank (pJ)
system.mem_ctrls_0.totalEnergy           1715296354380                       # Total energy per rank (pJ)
system.mem_ctrls_0.averagePower            711.971136                       # Core power per rank (mW)
system.mem_ctrls_0.memoryStateTime::IDLE 1510950981250                       # Time in different power states
system.mem_ctrls_0.memoryStateTime::REF   79953380000                       # Time in different power states
system.mem_ctrls_0.memoryStateTime::PRE_PDN            0                       # Time in different power states
system.mem_ctrls_0.memoryStateTime::ACT  803468760000                       # Time in different power states
system.mem_ctrls_0.memoryStateTime::ACT_PDN            0                       # Time in different power states
system.mem_ctrls_1.actEnergy               6263006400                       # Energy for activate commands per rank (pJ)
system.mem_ctrls_1.preEnergy               3417315000                       # Energy for precharge commands per rank (pJ)
system.mem_ctrls_1.readEnergy             14085076200                       # Energy for read commands per rank (pJ)
system.mem_ctrls_1.writeEnergy            11806754400                       # Energy for write commands per rank (pJ)
system.mem_ctrls_1.refreshEnergy         157358635200                       # Energy for refresh commands per rank (pJ)
system.mem_ctrls_1.actBackEnergy         605550678840                       # Energy for active background per rank (pJ)
system.mem_ctrls_1.preBackEnergy         914348235000                       # Energy for precharge background per rank (pJ)
system.mem_ctrls_1.totalEnergy           1712829701040                       # Total energy per rank (pJ)
system.mem_ctrls_1.averagePower            710.947306                       # Core power per rank (mW)
system.mem_ctrls_1.memoryStateTime::IDLE 1516182360002                       # Time in different power states
system.mem_ctrls_1.memoryStateTime::REF   79953380000                       # Time in different power states
system.mem_ctrls_1.memoryStateTime::PRE_PDN            0                       # Time in different power states
system.mem_ctrls_1.memoryStateTime::ACT  798237773498                       # Time in different power states
system.mem_ctrls_1.memoryStateTime::ACT_PDN            0                       # Time in different power states
system.cpu_voltage_domain.voltage                   1                       # Voltage in Volts
system.cpu_clk_domain.clock                       500                       # Clock period in ticks
system.cpu0.apic_clk_domain.clock                8000                       # Clock period in ticks
system.cpu0.numCycles                      4791882008                       # number of cpu cycles simulated
system.cpu0.numWorkItemsStarted                     0                       # number of work items this cpu started
system.cpu0.numWorkItemsCompleted                   0                       # number of work items this cpu completed
system.cpu0.kern.inst.arm                           0                       # number of arm instructions executed
system.cpu0.kern.inst.quiesce                       0                       # number of quiesce instructions executed
system.cpu0.committedInsts                    3978876                       # Number of instructions committed
system.cpu0.committedOps                      8225875                       # Number of ops (including micro ops) committed
system.cpu0.num_int_alu_accesses              8001620                       # Number of integer alu accesses
system.cpu0.num_fp_alu_accesses                   372                       # Number of float alu accesses
system.cpu0.num_func_calls                     193328                       # number of times a function call or return occured
system.cpu0.num_conditional_control_insts       632676                       # number of instructions that are conditional controls
system.cpu0.num_int_insts                     8001620                       # number of integer instructions
system.cpu0.num_fp_insts                          372                       # number of float instructions
system.cpu0.num_int_register_reads           15641264                       # number of times the integer registers were read
system.cpu0.num_int_register_writes           6591882                       # number of times the integer registers were written
system.cpu0.num_fp_register_reads                 596                       # number of times the floating registers were read
system.cpu0.num_fp_register_writes                261                       # number of times the floating registers were written
system.cpu0.num_cc_register_reads             4914774                       # number of times the CC registers were read
system.cpu0.num_cc_register_writes            3022671                       # number of times the CC registers were written
system.cpu0.num_mem_refs                      1691453                       # number of memory refs
system.cpu0.num_load_insts                    1046127                       # Number of load instructions
system.cpu0.num_store_insts                    645326                       # Number of store instructions
system.cpu0.num_idle_cycles              4763711261.786412                       # Number of idle cycles
system.cpu0.num_busy_cycles              28170746.213588                       # Number of busy cycles
system.cpu0.not_idle_fraction                0.005879                       # Percentage of non-idle cycles
system.cpu0.idle_fraction                    0.994121                       # Percentage of idle cycles
system.cpu0.Branches                           891783                       # Number of branches fetched
system.cpu0.op_class::No_OpClass                82795      1.01%      1.01% # Class of executed instruction
system.cpu0.op_class::IntAlu                  6415598     77.99%     79.00% # Class of executed instruction
system.cpu0.op_class::IntMult                    9503      0.12%     79.11% # Class of executed instruction
system.cpu0.op_class::IntDiv                    26368      0.32%     79.43% # Class of executed instruction
system.cpu0.op_class::FloatAdd                    244      0.00%     79.44% # Class of executed instruction
system.cpu0.op_class::FloatCmp                      0      0.00%     79.44% # Class of executed instruction
system.cpu0.op_class::FloatCvt                      0      0.00%     79.44% # Class of executed instruction
system.cpu0.op_class::FloatMult                     0      0.00%     79.44% # Class of executed instruction
system.cpu0.op_class::FloatDiv                      0      0.00%     79.44% # Class of executed instruction
system.cpu0.op_class::FloatSqrt                     0      0.00%     79.44% # Class of executed instruction
system.cpu0.op_class::SimdAdd                       0      0.00%     79.44% # Class of executed instruction
system.cpu0.op_class::SimdAddAcc                    0      0.00%     79.44% # Class of executed instruction
system.cpu0.op_class::SimdAlu                       0      0.00%     79.44% # Class of executed instruction
system.cpu0.op_class::SimdCmp                       0      0.00%     79.44% # Class of executed instruction
system.cpu0.op_class::SimdCvt                       0      0.00%     79.44% # Class of executed instruction
system.cpu0.op_class::SimdMisc                      0      0.00%     79.44% # Class of executed instruction
system.cpu0.op_class::SimdMult                      0      0.00%     79.44% # Class of executed instruction
system.cpu0.op_class::SimdMultAcc                   0      0.00%     79.44% # Class of executed instruction
system.cpu0.op_class::SimdShift                     0      0.00%     79.44% # Class of executed instruction
system.cpu0.op_class::SimdShiftAcc                  0      0.00%     79.44% # Class of executed instruction
system.cpu0.op_class::SimdSqrt                      0      0.00%     79.44% # Class of executed instruction
system.cpu0.op_class::SimdFloatAdd                  0      0.00%     79.44% # Class of executed instruction
system.cpu0.op_class::SimdFloatAlu                  0      0.00%     79.44% # Class of executed instruction
system.cpu0.op_class::SimdFloatCmp                  0      0.00%     79.44% # Class of executed instruction
system.cpu0.op_class::SimdFloatCvt                  0      0.00%     79.44% # Class of executed instruction
system.cpu0.op_class::SimdFloatDiv                  0      0.00%     79.44% # Class of executed instruction
system.cpu0.op_class::SimdFloatMisc                 0      0.00%     79.44% # Class of executed instruction
system.cpu0.op_class::SimdFloatMult                 0      0.00%     79.44% # Class of executed instruction
system.cpu0.op_class::SimdFloatMultAcc              0      0.00%     79.44% # Class of executed instruction
system.cpu0.op_class::SimdFloatSqrt                 0      0.00%     79.44% # Class of executed instruction
system.cpu0.op_class::MemRead                 1046127     12.72%     92.16% # Class of executed instruction
system.cpu0.op_class::MemWrite                 645326      7.84%    100.00% # Class of executed instruction
system.cpu0.op_class::IprAccess                     0      0.00%    100.00% # Class of executed instruction
system.cpu0.op_class::InstPrefetch                  0      0.00%    100.00% # Class of executed instruction
system.cpu0.op_class::total                   8225961                       # Class of executed instruction
system.cpu1.apic_clk_domain.clock                8000                       # Clock period in ticks
system.cpu1.numCycles                      4785888371                       # number of cpu cycles simulated
system.cpu1.numWorkItemsStarted                     0                       # number of work items this cpu started
system.cpu1.numWorkItemsCompleted                   0                       # number of work items this cpu completed
system.cpu1.kern.inst.arm                           0                       # number of arm instructions executed
system.cpu1.kern.inst.quiesce                       0                       # number of quiesce instructions executed
system.cpu1.committedInsts                  463961909                       # Number of instructions committed
system.cpu1.committedOps                    842192170                       # Number of ops (including micro ops) committed
system.cpu1.num_int_alu_accesses            551545230                       # Number of integer alu accesses
system.cpu1.num_fp_alu_accesses             390627633                       # Number of float alu accesses
system.cpu1.num_func_calls                     771228                       # number of times a function call or return occured
system.cpu1.num_conditional_control_insts     58376676                       # number of instructions that are conditional controls
system.cpu1.num_int_insts                   551545230                       # number of integer instructions
system.cpu1.num_fp_insts                    390627633                       # number of float instructions
system.cpu1.num_int_register_reads         1075342985                       # number of times the integer registers were read
system.cpu1.num_int_register_writes         382544890                       # number of times the integer registers were written
system.cpu1.num_fp_register_reads           475192086                       # number of times the floating registers were read
system.cpu1.num_fp_register_writes          371826694                       # number of times the floating registers were written
system.cpu1.num_cc_register_reads           343080962                       # number of times the CC registers were read
system.cpu1.num_cc_register_writes          193602246                       # number of times the CC registers were written
system.cpu1.num_mem_refs                    139753885                       # number of memory refs
system.cpu1.num_load_insts                  125228729                       # Number of load instructions
system.cpu1.num_store_insts                  14525156                       # Number of store instructions
system.cpu1.num_idle_cycles              3078422058.066356                       # Number of idle cycles
system.cpu1.num_busy_cycles              1707466312.933644                       # Number of busy cycles
system.cpu1.not_idle_fraction                0.356771                       # Percentage of non-idle cycles
system.cpu1.idle_fraction                    0.643229                       # Percentage of idle cycles
system.cpu1.Branches                         60979277                       # Number of branches fetched
system.cpu1.op_class::No_OpClass              1495146      0.18%      0.18% # Class of executed instruction
system.cpu1.op_class::IntAlu                448106256     53.21%     53.38% # Class of executed instruction
system.cpu1.op_class::IntMult                 1624114      0.19%     53.58% # Class of executed instruction
system.cpu1.op_class::IntDiv                    15400      0.00%     53.58% # Class of executed instruction
system.cpu1.op_class::FloatAdd              251213695     29.83%     83.41% # Class of executed instruction
system.cpu1.op_class::FloatCmp                      0      0.00%     83.41% # Class of executed instruction
system.cpu1.op_class::FloatCvt                      0      0.00%     83.41% # Class of executed instruction
system.cpu1.op_class::FloatMult                     0      0.00%     83.41% # Class of executed instruction
system.cpu1.op_class::FloatDiv                      0      0.00%     83.41% # Class of executed instruction
system.cpu1.op_class::FloatSqrt                     0      0.00%     83.41% # Class of executed instruction
system.cpu1.op_class::SimdAdd                       0      0.00%     83.41% # Class of executed instruction
system.cpu1.op_class::SimdAddAcc                    0      0.00%     83.41% # Class of executed instruction
system.cpu1.op_class::SimdAlu                       0      0.00%     83.41% # Class of executed instruction
system.cpu1.op_class::SimdCmp                       0      0.00%     83.41% # Class of executed instruction
system.cpu1.op_class::SimdCvt                       0      0.00%     83.41% # Class of executed instruction
system.cpu1.op_class::SimdMisc                      0      0.00%     83.41% # Class of executed instruction
system.cpu1.op_class::SimdMult                      0      0.00%     83.41% # Class of executed instruction
system.cpu1.op_class::SimdMultAcc                   0      0.00%     83.41% # Class of executed instruction
system.cpu1.op_class::SimdShift                     0      0.00%     83.41% # Class of executed instruction
system.cpu1.op_class::SimdShiftAcc                  0      0.00%     83.41% # Class of executed instruction
system.cpu1.op_class::SimdSqrt                      0      0.00%     83.41% # Class of executed instruction
system.cpu1.op_class::SimdFloatAdd                  0      0.00%     83.41% # Class of executed instruction
system.cpu1.op_class::SimdFloatAlu                  0      0.00%     83.41% # Class of executed instruction
system.cpu1.op_class::SimdFloatCmp                  0      0.00%     83.41% # Class of executed instruction
system.cpu1.op_class::SimdFloatCvt                  0      0.00%     83.41% # Class of executed instruction
system.cpu1.op_class::SimdFloatDiv                  0      0.00%     83.41% # Class of executed instruction
system.cpu1.op_class::SimdFloatMisc                 0      0.00%     83.41% # Class of executed instruction
system.cpu1.op_class::SimdFloatMult                 0      0.00%     83.41% # Class of executed instruction
system.cpu1.op_class::SimdFloatMultAcc              0      0.00%     83.41% # Class of executed instruction
system.cpu1.op_class::SimdFloatSqrt                 0      0.00%     83.41% # Class of executed instruction
system.cpu1.op_class::MemRead               125228729     14.87%     98.28% # Class of executed instruction
system.cpu1.op_class::MemWrite               14525156      1.72%    100.00% # Class of executed instruction
system.cpu1.op_class::IprAccess                     0      0.00%    100.00% # Class of executed instruction
system.cpu1.op_class::InstPrefetch                  0      0.00%    100.00% # Class of executed instruction
system.cpu1.op_class::total                 842208496                       # Class of executed instruction
system.cpu2.apic_clk_domain.clock                8000                       # Clock period in ticks
system.cpu2.numCycles                      4786988426                       # number of cpu cycles simulated
system.cpu2.numWorkItemsStarted                     0                       # number of work items this cpu started
system.cpu2.numWorkItemsCompleted                   0                       # number of work items this cpu completed
system.cpu2.kern.inst.arm                           0                       # number of arm instructions executed
system.cpu2.kern.inst.quiesce                       0                       # number of quiesce instructions executed
system.cpu2.committedInsts                    4645349                       # Number of instructions committed
system.cpu2.committedOps                      9335404                       # Number of ops (including micro ops) committed
system.cpu2.num_int_alu_accesses              9170516                       # Number of integer alu accesses
system.cpu2.num_fp_alu_accesses                  1778                       # Number of float alu accesses
system.cpu2.num_func_calls                     242556                       # number of times a function call or return occured
system.cpu2.num_conditional_control_insts       800504                       # number of instructions that are conditional controls
system.cpu2.num_int_insts                     9170516                       # number of integer instructions
system.cpu2.num_fp_insts                         1778                       # number of float instructions
system.cpu2.num_int_register_reads           18141758                       # number of times the integer registers were read
system.cpu2.num_int_register_writes           7460345                       # number of times the integer registers were written
system.cpu2.num_fp_register_reads                2988                       # number of times the floating registers were read
system.cpu2.num_fp_register_writes               1416                       # number of times the floating registers were written
system.cpu2.num_cc_register_reads             5972007                       # number of times the CC registers were read
system.cpu2.num_cc_register_writes            3184309                       # number of times the CC registers were written
system.cpu2.num_mem_refs                      2082755                       # number of memory refs
system.cpu2.num_load_insts                    1351056                       # Number of load instructions
system.cpu2.num_store_insts                    731699                       # Number of store instructions
system.cpu2.num_idle_cycles              4755091158.520477                       # Number of idle cycles
system.cpu2.num_busy_cycles              31897267.479522                       # Number of busy cycles
system.cpu2.not_idle_fraction                0.006663                       # Percentage of non-idle cycles
system.cpu2.idle_fraction                    0.993337                       # Percentage of idle cycles
system.cpu2.Branches                          1087562                       # Number of branches fetched
system.cpu2.op_class::No_OpClass                68631      0.74%      0.74% # Class of executed instruction
system.cpu2.op_class::IntAlu                  7151294     76.60%     77.34% # Class of executed instruction
system.cpu2.op_class::IntMult                    8809      0.09%     77.43% # Class of executed instruction
system.cpu2.op_class::IntDiv                    22661      0.24%     77.68% # Class of executed instruction
system.cpu2.op_class::FloatAdd                   1344      0.01%     77.69% # Class of executed instruction
system.cpu2.op_class::FloatCmp                      0      0.00%     77.69% # Class of executed instruction
system.cpu2.op_class::FloatCvt                      0      0.00%     77.69% # Class of executed instruction
system.cpu2.op_class::FloatMult                     0      0.00%     77.69% # Class of executed instruction
system.cpu2.op_class::FloatDiv                      0      0.00%     77.69% # Class of executed instruction
system.cpu2.op_class::FloatSqrt                     0      0.00%     77.69% # Class of executed instruction
system.cpu2.op_class::SimdAdd                       0      0.00%     77.69% # Class of executed instruction
system.cpu2.op_class::SimdAddAcc                    0      0.00%     77.69% # Class of executed instruction
system.cpu2.op_class::SimdAlu                       0      0.00%     77.69% # Class of executed instruction
system.cpu2.op_class::SimdCmp                       0      0.00%     77.69% # Class of executed instruction
system.cpu2.op_class::SimdCvt                       0      0.00%     77.69% # Class of executed instruction
system.cpu2.op_class::SimdMisc                      0      0.00%     77.69% # Class of executed instruction
system.cpu2.op_class::SimdMult                      0      0.00%     77.69% # Class of executed instruction
system.cpu2.op_class::SimdMultAcc                   0      0.00%     77.69% # Class of executed instruction
system.cpu2.op_class::SimdShift                     0      0.00%     77.69% # Class of executed instruction
system.cpu2.op_class::SimdShiftAcc                  0      0.00%     77.69% # Class of executed instruction
system.cpu2.op_class::SimdSqrt                      0      0.00%     77.69% # Class of executed instruction
system.cpu2.op_class::SimdFloatAdd                  0      0.00%     77.69% # Class of executed instruction
system.cpu2.op_class::SimdFloatAlu                  0      0.00%     77.69% # Class of executed instruction
system.cpu2.op_class::SimdFloatCmp                  0      0.00%     77.69% # Class of executed instruction
system.cpu2.op_class::SimdFloatCvt                  0      0.00%     77.69% # Class of executed instruction
system.cpu2.op_class::SimdFloatDiv                  0      0.00%     77.69% # Class of executed instruction
system.cpu2.op_class::SimdFloatMisc                 0      0.00%     77.69% # Class of executed instruction
system.cpu2.op_class::SimdFloatMult                 0      0.00%     77.69% # Class of executed instruction
system.cpu2.op_class::SimdFloatMultAcc              0      0.00%     77.69% # Class of executed instruction
system.cpu2.op_class::SimdFloatSqrt                 0      0.00%     77.69% # Class of executed instruction
system.cpu2.op_class::MemRead                 1351056     14.47%     92.16% # Class of executed instruction
system.cpu2.op_class::MemWrite                 731699      7.84%    100.00% # Class of executed instruction
system.cpu2.op_class::IprAccess                     0      0.00%    100.00% # Class of executed instruction
system.cpu2.op_class::InstPrefetch                  0      0.00%    100.00% # Class of executed instruction
system.cpu2.op_class::total                   9335494                       # Class of executed instruction
system.cpu3.apic_clk_domain.clock                8000                       # Clock period in ticks
system.cpu3.numCycles                      4786264365                       # number of cpu cycles simulated
system.cpu3.numWorkItemsStarted                     0                       # number of work items this cpu started
system.cpu3.numWorkItemsCompleted                   0                       # number of work items this cpu completed
system.cpu3.kern.inst.arm                           0                       # number of arm instructions executed
system.cpu3.kern.inst.quiesce                       0                       # number of quiesce instructions executed
system.cpu3.committedInsts                  835733593                       # Number of instructions committed
system.cpu3.committedOps                   1511170805                       # Number of ops (including micro ops) committed
system.cpu3.num_int_alu_accesses            959767160                       # Number of integer alu accesses
system.cpu3.num_fp_alu_accesses             739653169                       # Number of float alu accesses
system.cpu3.num_func_calls                     142803                       # number of times a function call or return occured
system.cpu3.num_conditional_control_insts    102890152                       # number of instructions that are conditional controls
system.cpu3.num_int_insts                   959767160                       # number of integer instructions
system.cpu3.num_fp_insts                    739653169                       # number of float instructions
system.cpu3.num_int_register_reads         1873898546                       # number of times the integer registers were read
system.cpu3.num_int_register_writes         655033107                       # number of times the integer registers were written
system.cpu3.num_fp_register_reads           907283508                       # number of times the floating registers were read
system.cpu3.num_fp_register_writes          703565348                       # number of times the floating registers were written
system.cpu3.num_cc_register_reads           598832887                       # number of times the CC registers were read
system.cpu3.num_cc_register_writes          335933831                       # number of times the CC registers were written
system.cpu3.num_mem_refs                    249604855                       # number of memory refs
system.cpu3.num_load_insts                  225366446                       # Number of load instructions
system.cpu3.num_store_insts                  24238409                       # Number of store instructions
system.cpu3.num_idle_cycles              1719777965.039745                       # Number of idle cycles
system.cpu3.num_busy_cycles              3066486399.960255                       # Number of busy cycles
system.cpu3.not_idle_fraction                0.640685                       # Percentage of non-idle cycles
system.cpu3.idle_fraction                    0.359315                       # Percentage of idle cycles
system.cpu3.Branches                        105829464                       # Number of branches fetched
system.cpu3.op_class::No_OpClass              2477981      0.16%      0.16% # Class of executed instruction
system.cpu3.op_class::IntAlu                784207166     51.89%     52.06% # Class of executed instruction
system.cpu3.op_class::IntMult                 2652803      0.18%     52.23% # Class of executed instruction
system.cpu3.op_class::IntDiv                    10247      0.00%     52.23% # Class of executed instruction
system.cpu3.op_class::FloatAdd              472217776     31.25%     83.48% # Class of executed instruction
system.cpu3.op_class::FloatCmp                      0      0.00%     83.48% # Class of executed instruction
system.cpu3.op_class::FloatCvt                      0      0.00%     83.48% # Class of executed instruction
system.cpu3.op_class::FloatMult                     0      0.00%     83.48% # Class of executed instruction
system.cpu3.op_class::FloatDiv                      0      0.00%     83.48% # Class of executed instruction
system.cpu3.op_class::FloatSqrt                     0      0.00%     83.48% # Class of executed instruction
system.cpu3.op_class::SimdAdd                       0      0.00%     83.48% # Class of executed instruction
system.cpu3.op_class::SimdAddAcc                    0      0.00%     83.48% # Class of executed instruction
system.cpu3.op_class::SimdAlu                       0      0.00%     83.48% # Class of executed instruction
system.cpu3.op_class::SimdCmp                       0      0.00%     83.48% # Class of executed instruction
system.cpu3.op_class::SimdCvt                       0      0.00%     83.48% # Class of executed instruction
system.cpu3.op_class::SimdMisc                      0      0.00%     83.48% # Class of executed instruction
system.cpu3.op_class::SimdMult                      0      0.00%     83.48% # Class of executed instruction
system.cpu3.op_class::SimdMultAcc                   0      0.00%     83.48% # Class of executed instruction
system.cpu3.op_class::SimdShift                     0      0.00%     83.48% # Class of executed instruction
system.cpu3.op_class::SimdShiftAcc                  0      0.00%     83.48% # Class of executed instruction
system.cpu3.op_class::SimdSqrt                      0      0.00%     83.48% # Class of executed instruction
system.cpu3.op_class::SimdFloatAdd                  0      0.00%     83.48% # Class of executed instruction
system.cpu3.op_class::SimdFloatAlu                  0      0.00%     83.48% # Class of executed instruction
system.cpu3.op_class::SimdFloatCmp                  0      0.00%     83.48% # Class of executed instruction
system.cpu3.op_class::SimdFloatCvt                  0      0.00%     83.48% # Class of executed instruction
system.cpu3.op_class::SimdFloatDiv                  0      0.00%     83.48% # Class of executed instruction
system.cpu3.op_class::SimdFloatMisc                 0      0.00%     83.48% # Class of executed instruction
system.cpu3.op_class::SimdFloatMult                 0      0.00%     83.48% # Class of executed instruction
system.cpu3.op_class::SimdFloatMultAcc              0      0.00%     83.48% # Class of executed instruction
system.cpu3.op_class::SimdFloatSqrt                 0      0.00%     83.48% # Class of executed instruction
system.cpu3.op_class::MemRead               225366446     14.91%     98.40% # Class of executed instruction
system.cpu3.op_class::MemWrite               24238409      1.60%    100.00% # Class of executed instruction
system.cpu3.op_class::IprAccess                     0      0.00%    100.00% # Class of executed instruction
system.cpu3.op_class::InstPrefetch                  0      0.00%    100.00% # Class of executed instruction
system.cpu3.op_class::total                1511170828                       # Class of executed instruction
system.iobus.trans_dist::ReadReq                  418                       # Transaction distribution
system.iobus.trans_dist::ReadResp                 418                       # Transaction distribution
system.iobus.trans_dist::WriteReq                3133                       # Transaction distribution
system.iobus.trans_dist::WriteResp               3133                       # Transaction distribution
system.iobus.trans_dist::MessageReq                60                       # Transaction distribution
system.iobus.trans_dist::MessageResp               60                       # Transaction distribution
system.iobus.pkt_count_system.pc.south_bridge.io_apic.int_master::system.ruby.l1_cntrl0.sequencer.pio-slave-port           24                       # Packet count per connected master and slave (bytes)
system.iobus.pkt_count_system.pc.south_bridge.io_apic.int_master::system.ruby.l1_cntrl1.sequencer.pio-slave-port           24                       # Packet count per connected master and slave (bytes)
system.iobus.pkt_count_system.pc.south_bridge.io_apic.int_master::system.ruby.l1_cntrl2.sequencer.pio-slave-port           22                       # Packet count per connected master and slave (bytes)
system.iobus.pkt_count_system.pc.south_bridge.io_apic.int_master::system.ruby.l1_cntrl3.sequencer.pio-slave-port           24                       # Packet count per connected master and slave (bytes)
system.iobus.pkt_count_system.pc.south_bridge.io_apic.int_master::total           94                       # Packet count per connected master and slave (bytes)
system.iobus.pkt_count_system.ruby.l1_cntrl0.sequencer.mem-master-port::system.pc.south_bridge.ide.pio          460                       # Packet count per connected master and slave (bytes)
system.iobus.pkt_count_system.ruby.l1_cntrl0.sequencer.mem-master-port::system.pc.south_bridge.io_apic.pio           14                       # Packet count per connected master and slave (bytes)
system.iobus.pkt_count_system.ruby.l1_cntrl0.sequencer.mem-master-port::system.pc.com_1.pio          162                       # Packet count per connected master and slave (bytes)
system.iobus.pkt_count_system.ruby.l1_cntrl0.sequencer.mem-master-port::system.ruby.l1_cntrl0.sequencer.pio-slave-port         1256                       # Packet count per connected master and slave (bytes)
system.iobus.pkt_count_system.ruby.l1_cntrl0.sequencer.mem-master-port::system.ruby.l1_cntrl1.sequencer.pio-slave-port            4                       # Packet count per connected master and slave (bytes)
system.iobus.pkt_count_system.ruby.l1_cntrl0.sequencer.mem-master-port::system.ruby.l1_cntrl3.sequencer.pio-slave-port            4                       # Packet count per connected master and slave (bytes)
system.iobus.pkt_count_system.ruby.l1_cntrl0.sequencer.mem-master-port::total         1900                       # Packet count per connected master and slave (bytes)
system.iobus.pkt_count_system.ruby.l1_cntrl1.sequencer.mem-master-port::system.pc.south_bridge.ide.pio          630                       # Packet count per connected master and slave (bytes)
system.iobus.pkt_count_system.ruby.l1_cntrl1.sequencer.mem-master-port::system.pc.south_bridge.io_apic.pio           16                       # Packet count per connected master and slave (bytes)
system.iobus.pkt_count_system.ruby.l1_cntrl1.sequencer.mem-master-port::system.ruby.l1_cntrl0.sequencer.pio-slave-port            2                       # Packet count per connected master and slave (bytes)
system.iobus.pkt_count_system.ruby.l1_cntrl1.sequencer.mem-master-port::system.ruby.l1_cntrl1.sequencer.pio-slave-port         1242                       # Packet count per connected master and slave (bytes)
system.iobus.pkt_count_system.ruby.l1_cntrl1.sequencer.mem-master-port::system.ruby.l1_cntrl2.sequencer.pio-slave-port            2                       # Packet count per connected master and slave (bytes)
system.iobus.pkt_count_system.ruby.l1_cntrl1.sequencer.mem-master-port::total         1892                       # Packet count per connected master and slave (bytes)
system.iobus.pkt_count_system.ruby.l1_cntrl2.sequencer.mem-master-port::system.pc.south_bridge.ide.pio          392                       # Packet count per connected master and slave (bytes)
system.iobus.pkt_count_system.ruby.l1_cntrl2.sequencer.mem-master-port::system.pc.south_bridge.io_apic.pio            8                       # Packet count per connected master and slave (bytes)
system.iobus.pkt_count_system.ruby.l1_cntrl2.sequencer.mem-master-port::system.ruby.l1_cntrl0.sequencer.pio-slave-port            2                       # Packet count per connected master and slave (bytes)
system.iobus.pkt_count_system.ruby.l1_cntrl2.sequencer.mem-master-port::system.ruby.l1_cntrl1.sequencer.pio-slave-port            2                       # Packet count per connected master and slave (bytes)
system.iobus.pkt_count_system.ruby.l1_cntrl2.sequencer.mem-master-port::system.ruby.l1_cntrl2.sequencer.pio-slave-port         1240                       # Packet count per connected master and slave (bytes)
system.iobus.pkt_count_system.ruby.l1_cntrl2.sequencer.mem-master-port::system.ruby.l1_cntrl3.sequencer.pio-slave-port            2                       # Packet count per connected master and slave (bytes)
system.iobus.pkt_count_system.ruby.l1_cntrl2.sequencer.mem-master-port::total         1646                       # Packet count per connected master and slave (bytes)
system.iobus.pkt_count_system.ruby.l1_cntrl3.sequencer.mem-master-port::system.pc.south_bridge.ide.pio          404                       # Packet count per connected master and slave (bytes)
system.iobus.pkt_count_system.ruby.l1_cntrl3.sequencer.mem-master-port::system.pc.south_bridge.io_apic.pio            6                       # Packet count per connected master and slave (bytes)
system.iobus.pkt_count_system.ruby.l1_cntrl3.sequencer.mem-master-port::system.pc.com_1.pio           22                       # Packet count per connected master and slave (bytes)
system.iobus.pkt_count_system.ruby.l1_cntrl3.sequencer.mem-master-port::system.ruby.l1_cntrl0.sequencer.pio-slave-port            6                       # Packet count per connected master and slave (bytes)
system.iobus.pkt_count_system.ruby.l1_cntrl3.sequencer.mem-master-port::system.ruby.l1_cntrl1.sequencer.pio-slave-port            2                       # Packet count per connected master and slave (bytes)
system.iobus.pkt_count_system.ruby.l1_cntrl3.sequencer.mem-master-port::system.ruby.l1_cntrl3.sequencer.pio-slave-port         1250                       # Packet count per connected master and slave (bytes)
system.iobus.pkt_count_system.ruby.l1_cntrl3.sequencer.mem-master-port::total         1690                       # Packet count per connected master and slave (bytes)
system.iobus.pkt_count::total                    7222                       # Packet count per connected master and slave (bytes)
system.iobus.pkt_size_system.pc.south_bridge.io_apic.int_master::system.ruby.l1_cntrl0.sequencer.pio-slave-port           48                       # Cumulative packet size per connected master and slave (bytes)
system.iobus.pkt_size_system.pc.south_bridge.io_apic.int_master::system.ruby.l1_cntrl1.sequencer.pio-slave-port           48                       # Cumulative packet size per connected master and slave (bytes)
system.iobus.pkt_size_system.pc.south_bridge.io_apic.int_master::system.ruby.l1_cntrl2.sequencer.pio-slave-port           44                       # Cumulative packet size per connected master and slave (bytes)
system.iobus.pkt_size_system.pc.south_bridge.io_apic.int_master::system.ruby.l1_cntrl3.sequencer.pio-slave-port           48                       # Cumulative packet size per connected master and slave (bytes)
system.iobus.pkt_size_system.pc.south_bridge.io_apic.int_master::total          188                       # Cumulative packet size per connected master and slave (bytes)
system.iobus.pkt_size_system.ruby.l1_cntrl0.sequencer.mem-master-port::system.pc.south_bridge.ide.pio          260                       # Cumulative packet size per connected master and slave (bytes)
system.iobus.pkt_size_system.ruby.l1_cntrl0.sequencer.mem-master-port::system.pc.south_bridge.io_apic.pio           28                       # Cumulative packet size per connected master and slave (bytes)
system.iobus.pkt_size_system.ruby.l1_cntrl0.sequencer.mem-master-port::system.pc.com_1.pio           81                       # Cumulative packet size per connected master and slave (bytes)
system.iobus.pkt_size_system.ruby.l1_cntrl0.sequencer.mem-master-port::system.ruby.l1_cntrl0.sequencer.pio-slave-port         2512                       # Cumulative packet size per connected master and slave (bytes)
system.iobus.pkt_size_system.ruby.l1_cntrl0.sequencer.mem-master-port::system.ruby.l1_cntrl1.sequencer.pio-slave-port            8                       # Cumulative packet size per connected master and slave (bytes)
system.iobus.pkt_size_system.ruby.l1_cntrl0.sequencer.mem-master-port::system.ruby.l1_cntrl3.sequencer.pio-slave-port            8                       # Cumulative packet size per connected master and slave (bytes)
system.iobus.pkt_size_system.ruby.l1_cntrl0.sequencer.mem-master-port::total         2897                       # Cumulative packet size per connected master and slave (bytes)
system.iobus.pkt_size_system.ruby.l1_cntrl1.sequencer.mem-master-port::system.pc.south_bridge.ide.pio          360                       # Cumulative packet size per connected master and slave (bytes)
system.iobus.pkt_size_system.ruby.l1_cntrl1.sequencer.mem-master-port::system.pc.south_bridge.io_apic.pio           32                       # Cumulative packet size per connected master and slave (bytes)
system.iobus.pkt_size_system.ruby.l1_cntrl1.sequencer.mem-master-port::system.ruby.l1_cntrl0.sequencer.pio-slave-port            4                       # Cumulative packet size per connected master and slave (bytes)
system.iobus.pkt_size_system.ruby.l1_cntrl1.sequencer.mem-master-port::system.ruby.l1_cntrl1.sequencer.pio-slave-port         2484                       # Cumulative packet size per connected master and slave (bytes)
system.iobus.pkt_size_system.ruby.l1_cntrl1.sequencer.mem-master-port::system.ruby.l1_cntrl2.sequencer.pio-slave-port            4                       # Cumulative packet size per connected master and slave (bytes)
system.iobus.pkt_size_system.ruby.l1_cntrl1.sequencer.mem-master-port::total         2884                       # Cumulative packet size per connected master and slave (bytes)
system.iobus.pkt_size_system.ruby.l1_cntrl2.sequencer.mem-master-port::system.pc.south_bridge.ide.pio          220                       # Cumulative packet size per connected master and slave (bytes)
system.iobus.pkt_size_system.ruby.l1_cntrl2.sequencer.mem-master-port::system.pc.south_bridge.io_apic.pio           16                       # Cumulative packet size per connected master and slave (bytes)
system.iobus.pkt_size_system.ruby.l1_cntrl2.sequencer.mem-master-port::system.ruby.l1_cntrl0.sequencer.pio-slave-port            4                       # Cumulative packet size per connected master and slave (bytes)
system.iobus.pkt_size_system.ruby.l1_cntrl2.sequencer.mem-master-port::system.ruby.l1_cntrl1.sequencer.pio-slave-port            4                       # Cumulative packet size per connected master and slave (bytes)
system.iobus.pkt_size_system.ruby.l1_cntrl2.sequencer.mem-master-port::system.ruby.l1_cntrl2.sequencer.pio-slave-port         2480                       # Cumulative packet size per connected master and slave (bytes)
system.iobus.pkt_size_system.ruby.l1_cntrl2.sequencer.mem-master-port::system.ruby.l1_cntrl3.sequencer.pio-slave-port            4                       # Cumulative packet size per connected master and slave (bytes)
system.iobus.pkt_size_system.ruby.l1_cntrl2.sequencer.mem-master-port::total         2728                       # Cumulative packet size per connected master and slave (bytes)
system.iobus.pkt_size_system.ruby.l1_cntrl3.sequencer.mem-master-port::system.pc.south_bridge.ide.pio          226                       # Cumulative packet size per connected master and slave (bytes)
system.iobus.pkt_size_system.ruby.l1_cntrl3.sequencer.mem-master-port::system.pc.south_bridge.io_apic.pio           12                       # Cumulative packet size per connected master and slave (bytes)
system.iobus.pkt_size_system.ruby.l1_cntrl3.sequencer.mem-master-port::system.pc.com_1.pio           11                       # Cumulative packet size per connected master and slave (bytes)
system.iobus.pkt_size_system.ruby.l1_cntrl3.sequencer.mem-master-port::system.ruby.l1_cntrl0.sequencer.pio-slave-port           12                       # Cumulative packet size per connected master and slave (bytes)
system.iobus.pkt_size_system.ruby.l1_cntrl3.sequencer.mem-master-port::system.ruby.l1_cntrl1.sequencer.pio-slave-port            4                       # Cumulative packet size per connected master and slave (bytes)
system.iobus.pkt_size_system.ruby.l1_cntrl3.sequencer.mem-master-port::system.ruby.l1_cntrl3.sequencer.pio-slave-port         2500                       # Cumulative packet size per connected master and slave (bytes)
system.iobus.pkt_size_system.ruby.l1_cntrl3.sequencer.mem-master-port::total         2765                       # Cumulative packet size per connected master and slave (bytes)
system.iobus.pkt_size::total                    11462                       # Cumulative packet size per connected master and slave (bytes)
system.iobus.reqLayer2.occupancy              1641500                       # Layer occupancy (ticks)
system.iobus.reqLayer2.utilization                0.0                       # Layer utilization (%)
system.iobus.reqLayer8.occupancy                37496                       # Layer occupancy (ticks)
system.iobus.reqLayer8.utilization                0.0                       # Layer utilization (%)
system.iobus.reqLayer12.occupancy              119000                       # Layer occupancy (ticks)
system.iobus.reqLayer12.utilization               0.0                       # Layer utilization (%)
system.iobus.reqLayer17.occupancy             1365489                       # Layer occupancy (ticks)
system.iobus.reqLayer17.utilization               0.0                       # Layer utilization (%)
system.iobus.reqLayer18.occupancy             1577294                       # Layer occupancy (ticks)
system.iobus.reqLayer18.utilization               0.0                       # Layer utilization (%)
system.iobus.reqLayer19.occupancy             1547488                       # Layer occupancy (ticks)
system.iobus.reqLayer19.utilization               0.0                       # Layer utilization (%)
system.iobus.reqLayer20.occupancy             1654151                       # Layer occupancy (ticks)
system.iobus.reqLayer20.utilization               0.0                       # Layer utilization (%)
system.iobus.respLayer0.occupancy               77959                       # Layer occupancy (ticks)
system.iobus.respLayer0.utilization               0.0                       # Layer utilization (%)
system.iobus.respLayer2.occupancy             1410000                       # Layer occupancy (ticks)
system.iobus.respLayer2.utilization               0.0                       # Layer utilization (%)
system.iobus.respLayer4.occupancy             1362500                       # Layer occupancy (ticks)
system.iobus.respLayer4.utilization               0.0                       # Layer utilization (%)
system.iobus.respLayer6.occupancy             1210000                       # Layer occupancy (ticks)
system.iobus.respLayer6.utilization               0.0                       # Layer utilization (%)
system.iobus.respLayer8.occupancy             1246500                       # Layer occupancy (ticks)
system.iobus.respLayer8.utilization               0.0                       # Layer utilization (%)
system.pc.south_bridge.ide.disks.dma_read_full_pages          357                       # Number of full page size DMA reads (not PRD).
system.pc.south_bridge.ide.disks.dma_read_bytes      1462272                       # Number of bytes transfered via DMA reads (not PRD).
system.pc.south_bridge.ide.disks.dma_read_txs          357                       # Number of DMA read transactions (not PRD).
system.pc.south_bridge.ide.disks.dma_write_full_pages            0                       # Number of full page size DMA writes.
system.pc.south_bridge.ide.disks.dma_write_bytes            0                       # Number of bytes transfered via DMA writes.
system.pc.south_bridge.ide.disks.dma_write_txs            0                       # Number of DMA write transactions.
system.ruby.clk_domain.clock                      500                       # Clock period in ticks
system.ruby.delayHist::bucket_size                  4                       # delay histogram for all message
system.ruby.delayHist::max_bucket                  39                       # delay histogram for all message
system.ruby.delayHist::samples                4374601                       # delay histogram for all message
[...]
system.ruby.LD.Directory.miss_type_mach_latency_hist_seqr |     1550494     53.42%     53.42% |      970907     33.45%     86.87% |      300032     10.34%     97.20% |       47143      1.62%     98.83% |       21957      0.76%     99.58% |        8070      0.28%     99.86% |        2046      0.07%     99.93% |        1861      0.06%    100.00% |          69      0.00%    100.00% |           0      0.00%    100.00%
system.ruby.LD.Directory.miss_type_mach_latency_hist_seqr::total      2902579                      
system.ruby.ST.L1Cache.miss_type_mach_latency_hist_seqr::bucket_size           16                      
system.ruby.ST.L1Cache.miss_type_mach_latency_hist_seqr::max_bucket          159                      
system.ruby.ST.L1Cache.miss_type_mach_latency_hist_seqr::samples          759                      
system.ruby.ST.L1Cache.miss_type_mach_latency_hist_seqr::mean    51.175231                      
system.ruby.ST.L1Cache.miss_type_mach_latency_hist_seqr::gmean    50.974461                      
system.ruby.ST.L1Cache.miss_type_mach_latency_hist_seqr::stdev     4.967665                      
system.ruby.ST.L1Cache.miss_type_mach_latency_hist_seqr |           0      0.00%      0.00% |           0      0.00%      0.00% |         200     26.35%     26.35% |         557     73.39%     99.74% |           0      0.00%     99.74% |           0      0.00%     99.74% |           0      0.00%     99.74% |           2      0.26%    100.00% |           0      0.00%    100.00% |           0      0.00%    100.00%
system.ruby.ST.L1Cache.miss_type_mach_latency_hist_seqr::total          759                      
system.ruby.ST.Directory.miss_type_mach_latency_hist_seqr::bucket_size          128                      
system.ruby.ST.Directory.miss_type_mach_latency_hist_seqr::max_bucket         1279                      
system.ruby.ST.Directory.miss_type_mach_latency_hist_seqr::samples       836158                      
system.ruby.ST.Directory.miss_type_mach_latency_hist_seqr::mean   152.740516                      
system.ruby.ST.Directory.miss_type_mach_latency_hist_seqr::gmean   138.095070                      
system.ruby.ST.Directory.miss_type_mach_latency_hist_seqr::stdev    88.462337                      
system.ruby.ST.Directory.miss_type_mach_latency_hist_seqr |      549254     65.69%     65.69% |      173682     20.77%     86.46% |       94592     11.31%     97.77% |        7760      0.93%     98.70% |        6925      0.83%     99.53% |        2683      0.32%     99.85% |         698      0.08%     99.93% |         541      0.06%    100.00% |          22      0.00%    100.00% |           1      0.00%    100.00%
system.ruby.ST.Directory.miss_type_mach_latency_hist_seqr::total       836158                      
system.ruby.IFETCH.L1Cache.miss_type_mach_latency_hist_seqr::bucket_size           32                      
system.ruby.IFETCH.L1Cache.miss_type_mach_latency_hist_seqr::max_bucket          319                      
system.ruby.IFETCH.L1Cache.miss_type_mach_latency_hist_seqr::samples       566372                      
system.ruby.IFETCH.L1Cache.miss_type_mach_latency_hist_seqr::mean    46.903570                      
system.ruby.IFETCH.L1Cache.miss_type_mach_latency_hist_seqr::gmean    46.783988                      
system.ruby.IFETCH.L1Cache.miss_type_mach_latency_hist_seqr::stdev     3.489984                      
system.ruby.IFETCH.L1Cache.miss_type_mach_latency_hist_seqr |           0      0.00%      0.00% |      566321     99.99%     99.99% |          28      0.00%    100.00% |           9      0.00%    100.00% |           7      0.00%    100.00% |           5      0.00%    100.00% |           2      0.00%    100.00% |           0      0.00%    100.00% |           0      0.00%    100.00% |           0      0.00%    100.00%
system.ruby.IFETCH.L1Cache.miss_type_mach_latency_hist_seqr::total       566372                      
system.ruby.IFETCH.Directory.miss_type_mach_latency_hist_seqr::bucket_size          128                      
system.ruby.IFETCH.Directory.miss_type_mach_latency_hist_seqr::max_bucket         1279                      
system.ruby.IFETCH.Directory.miss_type_mach_latency_hist_seqr::samples       293590                      
system.ruby.IFETCH.Directory.miss_type_mach_latency_hist_seqr::mean   143.204833                      
system.ruby.IFETCH.Directory.miss_type_mach_latency_hist_seqr::gmean   122.823069                      
system.ruby.IFETCH.Directory.miss_type_mach_latency_hist_seqr::stdev    89.240382                      
system.ruby.IFETCH.Directory.miss_type_mach_latency_hist_seqr |      142413     48.51%     48.51% |      123422     42.04%     90.55% |       21292      7.25%     97.80% |        3417      1.16%     98.96% |        1882      0.64%     99.60% |         816      0.28%     99.88% |         180      0.06%     99.94% |         156      0.05%    100.00% |          12      0.00%    100.00% |           0      0.00%    100.00%
system.ruby.IFETCH.Directory.miss_type_mach_latency_hist_seqr::total       293590                      
system.ruby.RMW_Read.L1Cache.miss_type_mach_latency_hist_seqr::bucket_size            8                      
system.ruby.RMW_Read.L1Cache.miss_type_mach_latency_hist_seqr::max_bucket           79                      
system.ruby.RMW_Read.L1Cache.miss_type_mach_latency_hist_seqr::samples         1500                      
system.ruby.RMW_Read.L1Cache.miss_type_mach_latency_hist_seqr::mean    46.358667                      
system.ruby.RMW_Read.L1Cache.miss_type_mach_latency_hist_seqr::gmean    46.260509                      
system.ruby.RMW_Read.L1Cache.miss_type_mach_latency_hist_seqr::stdev     3.158588                      
system.ruby.RMW_Read.L1Cache.miss_type_mach_latency_hist_seqr |           0      0.00%      0.00% |           0      0.00%      0.00% |           0      0.00%      0.00% |           0      0.00%      0.00% |           0      0.00%      0.00% |        1252     83.47%     83.47% |         235     15.67%     99.13% |          13      0.87%    100.00% |           0      0.00%    100.00% |           0      0.00%    100.00%
system.ruby.RMW_Read.L1Cache.miss_type_mach_latency_hist_seqr::total         1500                      
system.ruby.RMW_Read.Directory.miss_type_mach_latency_hist_seqr::bucket_size          128                      
system.ruby.RMW_Read.Directory.miss_type_mach_latency_hist_seqr::max_bucket         1279                      
system.ruby.RMW_Read.Directory.miss_type_mach_latency_hist_seqr::samples        21832                      
system.ruby.RMW_Read.Directory.miss_type_mach_latency_hist_seqr::mean   155.143688                      
system.ruby.RMW_Read.Directory.miss_type_mach_latency_hist_seqr::gmean   139.492313                      
system.ruby.RMW_Read.Directory.miss_type_mach_latency_hist_seqr::stdev    83.457946                      
system.ruby.RMW_Read.Directory.miss_type_mach_latency_hist_seqr |        7058     32.33%     32.33% |       12618     57.80%     90.12% |        1749      8.01%     98.14% |         160      0.73%     98.87% |         146      0.67%     99.54% |          74      0.34%     99.88% |          15      0.07%     99.95% |          12      0.05%    100.00% |           0      0.00%    100.00% |           0      0.00%    100.00%
system.ruby.RMW_Read.Directory.miss_type_mach_latency_hist_seqr::total        21832                      
system.ruby.Locked_RMW_Read.L1Cache.miss_type_mach_latency_hist_seqr::bucket_size           16                      
system.ruby.Locked_RMW_Read.L1Cache.miss_type_mach_latency_hist_seqr::max_bucket          159                      
system.ruby.Locked_RMW_Read.L1Cache.miss_type_mach_latency_hist_seqr::samples         3683                      
system.ruby.Locked_RMW_Read.L1Cache.miss_type_mach_latency_hist_seqr::mean    46.453163                      
system.ruby.Locked_RMW_Read.L1Cache.miss_type_mach_latency_hist_seqr::gmean    46.333030                      
system.ruby.Locked_RMW_Read.L1Cache.miss_type_mach_latency_hist_seqr::stdev     3.838351                      
system.ruby.Locked_RMW_Read.L1Cache.miss_type_mach_latency_hist_seqr |           0      0.00%      0.00% |           0      0.00%      0.00% |        3038     82.49%     82.49% |         642     17.43%     99.92% |           1      0.03%     99.95% |           0      0.00%     99.95% |           0      0.00%     99.95% |           0      0.00%     99.95% |           2      0.05%    100.00% |           0      0.00%    100.00%
system.ruby.Locked_RMW_Read.L1Cache.miss_type_mach_latency_hist_seqr::total         3683                      
system.ruby.Locked_RMW_Read.Directory.miss_type_mach_latency_hist_seqr::bucket_size          128                      
system.ruby.Locked_RMW_Read.Directory.miss_type_mach_latency_hist_seqr::max_bucket         1279                      
system.ruby.Locked_RMW_Read.Directory.miss_type_mach_latency_hist_seqr::samples        17758                      
system.ruby.Locked_RMW_Read.Directory.miss_type_mach_latency_hist_seqr::mean   156.888783                      
system.ruby.Locked_RMW_Read.Directory.miss_type_mach_latency_hist_seqr::gmean   138.344525                      
system.ruby.Locked_RMW_Read.Directory.miss_type_mach_latency_hist_seqr::stdev    93.602095                      
system.ruby.Locked_RMW_Read.Directory.miss_type_mach_latency_hist_seqr |        8641     48.66%     48.66% |        6926     39.00%     87.66% |        1634      9.20%     96.86% |         294      1.66%     98.52% |         173      0.97%     99.49% |          71      0.40%     99.89% |          10      0.06%     99.95% |           5      0.03%     99.98% |           4      0.02%    100.00% |           0      0.00%    100.00%
system.ruby.Locked_RMW_Read.Directory.miss_type_mach_latency_hist_seqr::total        17758                      
system.ruby.Directory_Controller.GETX         2602500      0.00%      0.00%
system.ruby.Directory_Controller.PUTX         2211025      0.00%      0.00%
system.ruby.Directory_Controller.PUTX_NotOwner            5      0.00%      0.00%
system.ruby.Directory_Controller.DMA_READ        11589      0.00%      0.00%
system.ruby.Directory_Controller.DMA_WRITE           64      0.00%      0.00%
system.ruby.Directory_Controller.Memory_Data      2222639      0.00%      0.00%
system.ruby.Directory_Controller.Memory_Ack      2211089      0.00%      0.00%
system.ruby.Directory_Controller.I.GETX       2211064      0.00%      0.00%
system.ruby.Directory_Controller.I.DMA_READ        11575      0.00%      0.00%
system.ruby.Directory_Controller.I.DMA_WRITE           64      0.00%      0.00%
system.ruby.Directory_Controller.M.GETX        391100      0.00%      0.00%
system.ruby.Directory_Controller.M.PUTX       2211011      0.00%      0.00%
system.ruby.Directory_Controller.M.PUTX_NotOwner            5      0.00%      0.00%
system.ruby.Directory_Controller.M.DMA_READ           14      0.00%      0.00%
system.ruby.Directory_Controller.M_DRD.PUTX           14      0.00%      0.00%
system.ruby.Directory_Controller.M_DRDI.Memory_Ack           14      0.00%      0.00%
system.ruby.Directory_Controller.IM.GETX          320      0.00%      0.00%
system.ruby.Directory_Controller.IM.Memory_Data      2211064      0.00%      0.00%
system.ruby.Directory_Controller.MI.GETX           16      0.00%      0.00%
system.ruby.Directory_Controller.MI.Memory_Ack      2211011      0.00%      0.00%
system.ruby.Directory_Controller.ID.Memory_Data        11575      0.00%      0.00%
system.ruby.Directory_Controller.ID_W.Memory_Ack           64      0.00%      0.00%
system.ruby.DMA_Controller.ReadRequest   |       11589    100.00%    100.00% |           0      0.00%    100.00%
system.ruby.DMA_Controller.ReadRequest::total        11589                      
system.ruby.DMA_Controller.WriteRequest  |          64    100.00%    100.00% |           0      0.00%    100.00%
system.ruby.DMA_Controller.WriteRequest::total           64                      
system.ruby.DMA_Controller.Data          |       11589    100.00%    100.00% |           0      0.00%    100.00%
system.ruby.DMA_Controller.Data::total          11589                      
system.ruby.DMA_Controller.Ack           |          64    100.00%    100.00% |           0      0.00%    100.00%
system.ruby.DMA_Controller.Ack::total              64                      
system.ruby.DMA_Controller.READY.ReadRequest |       11589    100.00%    100.00% |           0      0.00%    100.00%
system.ruby.DMA_Controller.READY.ReadRequest::total        11589                      
system.ruby.DMA_Controller.READY.WriteRequest |          64    100.00%    100.00% |           0      0.00%    100.00%
system.ruby.DMA_Controller.READY.WriteRequest::total           64                      
system.ruby.DMA_Controller.BUSY_RD.Data  |       11589    100.00%    100.00% |           0      0.00%    100.00%
system.ruby.DMA_Controller.BUSY_RD.Data::total        11589                      
system.ruby.DMA_Controller.BUSY_WR.Ack   |          64    100.00%    100.00% |           0      0.00%    100.00%
system.ruby.DMA_Controller.BUSY_WR.Ack::total           64                      
system.ruby.L1Cache_Controller.Load      |     1075883      0.29%      0.29% |   125928788     33.54%     33.83% |    22469567      5.99%     39.81% |   225949673     60.19%    100.00%
system.ruby.L1Cache_Controller.Load::total    375423911                      
system.ruby.L1Cache_Controller.Ifetch    |     6027042      0.30%      0.30% |   668005299     33.79%     34.09% |   101279845      5.12%     39.21% |  1201807394     60.79%    100.00%
system.ruby.L1Cache_Controller.Ifetch::total   1977119580                      
system.ruby.L1Cache_Controller.Store     |      903491      1.66%      1.66% |    15601989     28.65%     30.31% |    12860151     23.62%     53.92% |    25091848     46.08%    100.00%
system.ruby.L1Cache_Controller.Store::total     54457479                      
system.ruby.L1Cache_Controller.Data      |      185047      7.11%      7.11% |      774452     29.76%     36.87% |      441643     16.97%     53.85% |     1201022     46.15%    100.00%
system.ruby.L1Cache_Controller.Data::total      2602164                      
system.ruby.L1Cache_Controller.Fwd_GETX  |      108684     27.79%     27.79% |       87526     22.38%     50.17% |      109311     27.95%     78.12% |       85579     21.88%    100.00%
system.ruby.L1Cache_Controller.Fwd_GETX::total       391100                      
system.ruby.L1Cache_Controller.Inv       |          18     64.29%     64.29% |          10     35.71%    100.00% |           0      0.00%    100.00% |           0      0.00%    100.00%
system.ruby.L1Cache_Controller.Inv::total           28                      
system.ruby.L1Cache_Controller.Replacement |       93025      4.06%      4.06% |      708532     30.92%     34.98% |      349740     15.26%     50.24% |     1140349     49.76%    100.00%
system.ruby.L1Cache_Controller.Replacement::total      2291646                      
system.ruby.L1Cache_Controller.Writeback_Ack |       76472      3.46%      3.46% |      686865     31.07%     34.52% |      332495     15.04%     49.56% |     1115193     50.44%    100.00%
system.ruby.L1Cache_Controller.Writeback_Ack::total      2211025                      
system.ruby.L1Cache_Controller.Writeback_Nack |           1     20.00%     20.00% |           0      0.00%     20.00% |           0      0.00%     20.00% |           4     80.00%    100.00%
system.ruby.L1Cache_Controller.Writeback_Nack::total            5                      
system.ruby.L1Cache_Controller.I.Load    |       60730      3.73%      3.73% |      488972     30.01%     33.73% |      229381     14.08%     47.81% |      850549     52.19%    100.00%
system.ruby.L1Cache_Controller.I.Load::total      1629632                      
system.ruby.L1Cache_Controller.I.Ifetch  |      110017     21.84%     21.84% |      124364     24.69%     46.53% |      161938     32.15%     78.67% |      107427     21.33%    100.00%
system.ruby.L1Cache_Controller.I.Ifetch::total       503746                      
system.ruby.L1Cache_Controller.I.Store   |       14300      3.05%      3.05% |      161116     34.37%     37.42% |       50324     10.73%     48.15% |      243046     51.85%    100.00%
system.ruby.L1Cache_Controller.I.Store::total       468786                      
system.ruby.L1Cache_Controller.I.Replacement |       16561     20.54%     20.54% |       21672     26.88%     47.42% |       17245     21.39%     68.81% |       25152     31.19%    100.00%
system.ruby.L1Cache_Controller.I.Replacement::total        80630                      
system.ruby.L1Cache_Controller.II.Writeback_Nack |           1     20.00%     20.00% |           0      0.00%     20.00% |           0      0.00%     20.00% |           4     80.00%    100.00%
system.ruby.L1Cache_Controller.II.Writeback_Nack::total            5                      
system.ruby.L1Cache_Controller.M.Load    |     1015153      0.27%      0.27% |   125439816     33.56%     33.83% |    22240186      5.95%     39.78% |   225099124     60.22%    100.00%
system.ruby.L1Cache_Controller.M.Load::total    373794279                      
system.ruby.L1Cache_Controller.M.Ifetch  |     5917025      0.30%      0.30% |   667880935     33.79%     34.09% |   101117907      5.12%     39.20% |  1201699967     60.80%    100.00%
system.ruby.L1Cache_Controller.M.Ifetch::total   1976615834                      
system.ruby.L1Cache_Controller.M.Store   |      889191      1.65%      1.65% |    15440873     28.60%     30.25% |    12809827     23.73%     53.97% |    24848802     46.03%    100.00%
system.ruby.L1Cache_Controller.M.Store::total     53988693                      
system.ruby.L1Cache_Controller.M.Fwd_GETX |      108683     27.79%     27.79% |       87526     22.38%     50.17% |      109311     27.95%     78.12% |       85575     21.88%    100.00%
system.ruby.L1Cache_Controller.M.Fwd_GETX::total       391095                      
system.ruby.L1Cache_Controller.M.Inv     |           9     64.29%     64.29% |           5     35.71%    100.00% |           0      0.00%    100.00% |           0      0.00%    100.00%
system.ruby.L1Cache_Controller.M.Inv::total           14                      
system.ruby.L1Cache_Controller.M.Replacement |       76464      3.46%      3.46% |      686860     31.07%     34.52% |      332495     15.04%     49.56% |     1115197     50.44%    100.00%
system.ruby.L1Cache_Controller.M.Replacement::total      2211016                      
system.ruby.L1Cache_Controller.MI.Fwd_GETX |           1     20.00%     20.00% |           0      0.00%     20.00% |           0      0.00%     20.00% |           4     80.00%    100.00%
system.ruby.L1Cache_Controller.MI.Fwd_GETX::total            5                      
system.ruby.L1Cache_Controller.MI.Inv    |           9     64.29%     64.29% |           5     35.71%    100.00% |           0      0.00%    100.00% |           0      0.00%    100.00%
system.ruby.L1Cache_Controller.MI.Inv::total           14                      
system.ruby.L1Cache_Controller.MI.Writeback_Ack |       76472      3.46%      3.46% |      686865     31.07%     34.52% |      332495     15.04%     49.56% |     1115193     50.44%    100.00%
system.ruby.L1Cache_Controller.MI.Writeback_Ack::total      2211025                      
system.ruby.L1Cache_Controller.IS.Data   |      170747      8.00%      8.00% |      613336     28.75%     36.75% |      391319     18.34%     55.10% |      957976     44.90%    100.00%
system.ruby.L1Cache_Controller.IS.Data::total      2133378                      
system.ruby.L1Cache_Controller.IM.Data   |       14300      3.05%      3.05% |      161116     34.37%     37.42% |       50324     10.73%     48.15% |      243046     51.85%    100.00%
system.ruby.L1Cache_Controller.IM.Data::total       468786                      

---------- End Simulation Statistics   ----------
