
---------- Begin Simulation Statistics ----------
sim_seconds                                  1.302422                       # Number of seconds simulated
sim_ticks                                1302422179500                       # Number of ticks simulated
final_tick                               53860318549001                       # Number of ticks from beginning of simulation (restored from checkpoints and never reset)
sim_freq                                 1000000000000                       # Frequency of simulated ticks
host_inst_rate                                 108540                       # Simulator instruction rate (inst/s)
host_op_rate                                   145265                       # Simulator op (including micro ops) rate (op/s)
host_tick_rate                              260928663                       # Simulator tick rate (ticks/s)
host_mem_usage                                1945560                       # Number of bytes of host memory used
host_seconds                                  4991.49                       # Real time elapsed on the host
sim_insts                                   541774267                       # Number of instructions simulated
sim_ops                                     725086522                       # Number of ops (including micro ops) simulated
system.voltage_domain.voltage                       1                       # Voltage in Volts
system.clk_domain.clock                          1000                       # Clock period in ticks
system.mem_ctrls.bytes_read::ruby.dir_cntrl0    167493856                       # Number of bytes read from this memory
system.mem_ctrls.bytes_read::total          167493856                       # Number of bytes read from this memory
system.mem_ctrls.bytes_written::ruby.dir_cntrl0     98676032                       # Number of bytes written to this memory
system.mem_ctrls.bytes_written::total        98676032                       # Number of bytes written to this memory
system.mem_ctrls.num_reads::ruby.dir_cntrl0      5234183                       # Number of read requests responded to by this memory
system.mem_ctrls.num_reads::total             5234183                       # Number of read requests responded to by this memory
system.mem_ctrls.num_writes::ruby.dir_cntrl0      3083626                       # Number of write requests responded to by this memory
system.mem_ctrls.num_writes::total            3083626                       # Number of write requests responded to by this memory
system.mem_ctrls.bw_read::ruby.dir_cntrl0    128601815                       # Total read bandwidth from this memory (bytes/s)
system.mem_ctrls.bw_read::total             128601815                       # Total read bandwidth from this memory (bytes/s)
system.mem_ctrls.bw_write::ruby.dir_cntrl0     75763476                       # Write bandwidth from this memory (bytes/s)
system.mem_ctrls.bw_write::total             75763476                       # Write bandwidth from this memory (bytes/s)
system.mem_ctrls.bw_total::ruby.dir_cntrl0    204365291                       # Total bandwidth to/from this memory (bytes/s)
system.mem_ctrls.bw_total::total            204365291                       # Total bandwidth to/from this memory (bytes/s)
system.mem_ctrls.readReqs                     5234183                       # Number of read requests accepted
system.mem_ctrls.writeReqs                    3083626                       # Number of write requests accepted
system.mem_ctrls.readBursts                   5234183                       # Number of DRAM read bursts, including those serviced by the write queue
system.mem_ctrls.writeBursts                  3083626                       # Number of DRAM write bursts, including those merged in the write queue
system.mem_ctrls.bytesReadDRAM              334881152                       # Total number of bytes read from DRAM
system.mem_ctrls.bytesReadWrQ                  106560                       # Total number of bytes read from write queue
system.mem_ctrls.bytesWritten               171099840                       # Total number of bytes written to DRAM
system.mem_ctrls.bytesReadSys               167493856                       # Total read bytes from the system interface side
system.mem_ctrls.bytesWrittenSys             98676032                       # Total written bytes from the system interface side
system.mem_ctrls.servicedByWrQ                   1665                       # Number of DRAM read bursts serviced by the write queue
system.mem_ctrls.mergedWrBursts                410186                       # Number of DRAM write bursts merged with an existing one
system.mem_ctrls.neitherReadNorWriteReqs            0                       # Number of requests that are neither read nor write
system.mem_ctrls.perBankRdBursts::0            327065                       # Per bank write bursts
system.mem_ctrls.perBankRdBursts::1            327458                       # Per bank write bursts
system.mem_ctrls.perBankRdBursts::2            324583                       # Per bank write bursts
system.mem_ctrls.perBankRdBursts::3            326579                       # Per bank write bursts
system.mem_ctrls.perBankRdBursts::4            325886                       # Per bank write bursts
system.mem_ctrls.perBankRdBursts::5            326709                       # Per bank write bursts
system.mem_ctrls.perBankRdBursts::6            326877                       # Per bank write bursts
system.mem_ctrls.perBankRdBursts::7            327195                       # Per bank write bursts
system.mem_ctrls.perBankRdBursts::8            326537                       # Per bank write bursts
system.mem_ctrls.perBankRdBursts::9            326993                       # Per bank write bursts
system.mem_ctrls.perBankRdBursts::10           327155                       # Per bank write bursts
system.mem_ctrls.perBankRdBursts::11           326146                       # Per bank write bursts
system.mem_ctrls.perBankRdBursts::12           326887                       # Per bank write bursts
system.mem_ctrls.perBankRdBursts::13           329153                       # Per bank write bursts
system.mem_ctrls.perBankRdBursts::14           329316                       # Per bank write bursts
system.mem_ctrls.perBankRdBursts::15           327979                       # Per bank write bursts
system.mem_ctrls.perBankWrBursts::0            168546                       # Per bank write bursts
system.mem_ctrls.perBankWrBursts::1            170996                       # Per bank write bursts
system.mem_ctrls.perBankWrBursts::2            166864                       # Per bank write bursts
system.mem_ctrls.perBankWrBursts::3            161796                       # Per bank write bursts
system.mem_ctrls.perBankWrBursts::4            166806                       # Per bank write bursts
system.mem_ctrls.perBankWrBursts::5            169157                       # Per bank write bursts
system.mem_ctrls.perBankWrBursts::6            167131                       # Per bank write bursts
system.mem_ctrls.perBankWrBursts::7            164816                       # Per bank write bursts
system.mem_ctrls.perBankWrBursts::8            169756                       # Per bank write bursts
system.mem_ctrls.perBankWrBursts::9            170812                       # Per bank write bursts
system.mem_ctrls.perBankWrBursts::10           167582                       # Per bank write bursts
system.mem_ctrls.perBankWrBursts::11           160840                       # Per bank write bursts
system.mem_ctrls.perBankWrBursts::12           166648                       # Per bank write bursts
system.mem_ctrls.perBankWrBursts::13           171522                       # Per bank write bursts
system.mem_ctrls.perBankWrBursts::14           168241                       # Per bank write bursts
system.mem_ctrls.perBankWrBursts::15           161922                       # Per bank write bursts
system.mem_ctrls.numRdRetry                         0                       # Number of times read queue was full causing retry
system.mem_ctrls.numWrRetry                         0                       # Number of times write queue was full causing retry
system.mem_ctrls.totGap                  1302422201500                       # Total gap between requests
system.mem_ctrls.readPktSize::0                     0                       # Read request sizes (log2)
system.mem_ctrls.readPktSize::1                     0                       # Read request sizes (log2)
system.mem_ctrls.readPktSize::2                     0                       # Read request sizes (log2)
system.mem_ctrls.readPktSize::3                     0                       # Read request sizes (log2)
system.mem_ctrls.readPktSize::4                     0                       # Read request sizes (log2)
system.mem_ctrls.readPktSize::5               5234183                       # Read request sizes (log2)
system.mem_ctrls.readPktSize::6                     0                       # Read request sizes (log2)
system.mem_ctrls.writePktSize::0                    0                       # Write request sizes (log2)
system.mem_ctrls.writePktSize::1                    0                       # Write request sizes (log2)
system.mem_ctrls.writePktSize::2                    0                       # Write request sizes (log2)
system.mem_ctrls.writePktSize::3                    0                       # Write request sizes (log2)
system.mem_ctrls.writePktSize::4                    0                       # Write request sizes (log2)
system.mem_ctrls.writePktSize::5              3083626                       # Write request sizes (log2)
system.mem_ctrls.writePktSize::6                    0                       # Write request sizes (log2)
system.mem_ctrls.rdQLenPdf::0                 5231387                       # What read queue length does an incoming req see
system.mem_ctrls.rdQLenPdf::1                    1130                       # What read queue length does an incoming req see
system.mem_ctrls.rdQLenPdf::2                       1                       # What read queue length does an incoming req see
system.mem_ctrls.rdQLenPdf::3                       0                       # What read queue length does an incoming req see
system.mem_ctrls.rdQLenPdf::4                       0                       # What read queue length does an incoming req see
system.mem_ctrls.rdQLenPdf::5                       0                       # What read queue length does an incoming req see
system.mem_ctrls.rdQLenPdf::6                       0                       # What read queue length does an incoming req see
system.mem_ctrls.rdQLenPdf::7                       0                       # What read queue length does an incoming req see
system.mem_ctrls.rdQLenPdf::8                       0                       # What read queue length does an incoming req see
system.mem_ctrls.rdQLenPdf::9                       0                       # What read queue length does an incoming req see
system.mem_ctrls.rdQLenPdf::10                      0                       # What read queue length does an incoming req see
system.mem_ctrls.rdQLenPdf::11                      0                       # What read queue length does an incoming req see
system.mem_ctrls.rdQLenPdf::12                      0                       # What read queue length does an incoming req see
system.mem_ctrls.rdQLenPdf::13                      0                       # What read queue length does an incoming req see
system.mem_ctrls.rdQLenPdf::14                      0                       # What read queue length does an incoming req see
system.mem_ctrls.rdQLenPdf::15                      0                       # What read queue length does an incoming req see
system.mem_ctrls.rdQLenPdf::16                      0                       # What read queue length does an incoming req see
system.mem_ctrls.rdQLenPdf::17                      0                       # What read queue length does an incoming req see
system.mem_ctrls.rdQLenPdf::18                      0                       # What read queue length does an incoming req see
system.mem_ctrls.rdQLenPdf::19                      0                       # What read queue length does an incoming req see
system.mem_ctrls.rdQLenPdf::20                      0                       # What read queue length does an incoming req see
system.mem_ctrls.rdQLenPdf::21                      0                       # What read queue length does an incoming req see
system.mem_ctrls.rdQLenPdf::22                      0                       # What read queue length does an incoming req see
system.mem_ctrls.rdQLenPdf::23                      0                       # What read queue length does an incoming req see
system.mem_ctrls.rdQLenPdf::24                      0                       # What read queue length does an incoming req see
system.mem_ctrls.rdQLenPdf::25                      0                       # What read queue length does an incoming req see
system.mem_ctrls.rdQLenPdf::26                      0                       # What read queue length does an incoming req see
system.mem_ctrls.rdQLenPdf::27                      0                       # What read queue length does an incoming req see
system.mem_ctrls.rdQLenPdf::28                      0                       # What read queue length does an incoming req see
system.mem_ctrls.rdQLenPdf::29                      0                       # What read queue length does an incoming req see
system.mem_ctrls.rdQLenPdf::30                      0                       # What read queue length does an incoming req see
system.mem_ctrls.rdQLenPdf::31                      0                       # What read queue length does an incoming req see
system.mem_ctrls.wrQLenPdf::0                       0                       # What write queue length does an incoming req see
system.mem_ctrls.wrQLenPdf::1                       0                       # What write queue length does an incoming req see
system.mem_ctrls.wrQLenPdf::2                       0                       # What write queue length does an incoming req see
system.mem_ctrls.wrQLenPdf::3                       0                       # What write queue length does an incoming req see
system.mem_ctrls.wrQLenPdf::4                       0                       # What write queue length does an incoming req see
system.mem_ctrls.wrQLenPdf::5                       0                       # What write queue length does an incoming req see
system.mem_ctrls.wrQLenPdf::6                       0                       # What write queue length does an incoming req see
system.mem_ctrls.wrQLenPdf::7                       0                       # What write queue length does an incoming req see
system.mem_ctrls.wrQLenPdf::8                       0                       # What write queue length does an incoming req see
system.mem_ctrls.wrQLenPdf::9                       0                       # What write queue length does an incoming req see
system.mem_ctrls.wrQLenPdf::10                      0                       # What write queue length does an incoming req see
system.mem_ctrls.wrQLenPdf::11                      0                       # What write queue length does an incoming req see
system.mem_ctrls.wrQLenPdf::12                      1                       # What write queue length does an incoming req see
system.mem_ctrls.wrQLenPdf::13                      1                       # What write queue length does an incoming req see
system.mem_ctrls.wrQLenPdf::14                      1                       # What write queue length does an incoming req see
system.mem_ctrls.wrQLenPdf::15                  48377                       # What write queue length does an incoming req see
system.mem_ctrls.wrQLenPdf::16                  54911                       # What write queue length does an incoming req see
system.mem_ctrls.wrQLenPdf::17                 121595                       # What write queue length does an incoming req see
system.mem_ctrls.wrQLenPdf::18                 158907                       # What write queue length does an incoming req see
system.mem_ctrls.wrQLenPdf::19                 165962                       # What write queue length does an incoming req see
system.mem_ctrls.wrQLenPdf::20                 165513                       # What write queue length does an incoming req see
system.mem_ctrls.wrQLenPdf::21                 165015                       # What write queue length does an incoming req see
system.mem_ctrls.wrQLenPdf::22                 164757                       # What write queue length does an incoming req see
system.mem_ctrls.wrQLenPdf::23                 164333                       # What write queue length does an incoming req see
system.mem_ctrls.wrQLenPdf::24                 163619                       # What write queue length does an incoming req see
system.mem_ctrls.wrQLenPdf::25                 162771                       # What write queue length does an incoming req see
system.mem_ctrls.wrQLenPdf::26                 163009                       # What write queue length does an incoming req see
system.mem_ctrls.wrQLenPdf::27                 163726                       # What write queue length does an incoming req see
system.mem_ctrls.wrQLenPdf::28                 163236                       # What write queue length does an incoming req see
system.mem_ctrls.wrQLenPdf::29                 162643                       # What write queue length does an incoming req see
system.mem_ctrls.wrQLenPdf::30                 160812                       # What write queue length does an incoming req see
system.mem_ctrls.wrQLenPdf::31                 160230                       # What write queue length does an incoming req see
system.mem_ctrls.wrQLenPdf::32                 163534                       # What write queue length does an incoming req see
system.mem_ctrls.wrQLenPdf::33                    401                       # What write queue length does an incoming req see
system.mem_ctrls.wrQLenPdf::34                     43                       # What write queue length does an incoming req see
system.mem_ctrls.wrQLenPdf::35                     16                       # What write queue length does an incoming req see
system.mem_ctrls.wrQLenPdf::36                     10                       # What write queue length does an incoming req see
system.mem_ctrls.wrQLenPdf::37                      6                       # What write queue length does an incoming req see
system.mem_ctrls.wrQLenPdf::38                      4                       # What write queue length does an incoming req see
system.mem_ctrls.wrQLenPdf::39                      3                       # What write queue length does an incoming req see
system.mem_ctrls.wrQLenPdf::40                      2                       # What write queue length does an incoming req see
system.mem_ctrls.wrQLenPdf::41                      2                       # What write queue length does an incoming req see
system.mem_ctrls.wrQLenPdf::42                      0                       # What write queue length does an incoming req see
system.mem_ctrls.wrQLenPdf::43                      0                       # What write queue length does an incoming req see
system.mem_ctrls.wrQLenPdf::44                      0                       # What write queue length does an incoming req see
system.mem_ctrls.wrQLenPdf::45                      0                       # What write queue length does an incoming req see
system.mem_ctrls.wrQLenPdf::46                      0                       # What write queue length does an incoming req see
system.mem_ctrls.wrQLenPdf::47                      0                       # What write queue length does an incoming req see
system.mem_ctrls.wrQLenPdf::48                      0                       # What write queue length does an incoming req see
system.mem_ctrls.wrQLenPdf::49                      0                       # What write queue length does an incoming req see
system.mem_ctrls.wrQLenPdf::50                      0                       # What write queue length does an incoming req see
system.mem_ctrls.wrQLenPdf::51                      0                       # What write queue length does an incoming req see
system.mem_ctrls.wrQLenPdf::52                      0                       # What write queue length does an incoming req see
system.mem_ctrls.wrQLenPdf::53                      0                       # What write queue length does an incoming req see
system.mem_ctrls.wrQLenPdf::54                      0                       # What write queue length does an incoming req see
system.mem_ctrls.wrQLenPdf::55                      0                       # What write queue length does an incoming req see
system.mem_ctrls.wrQLenPdf::56                      0                       # What write queue length does an incoming req see
system.mem_ctrls.wrQLenPdf::57                      0                       # What write queue length does an incoming req see
system.mem_ctrls.wrQLenPdf::58                      0                       # What write queue length does an incoming req see
system.mem_ctrls.wrQLenPdf::59                      0                       # What write queue length does an incoming req see
system.mem_ctrls.wrQLenPdf::60                      0                       # What write queue length does an incoming req see
system.mem_ctrls.wrQLenPdf::61                      0                       # What write queue length does an incoming req see
system.mem_ctrls.wrQLenPdf::62                      0                       # What write queue length does an incoming req see
system.mem_ctrls.wrQLenPdf::63                      0                       # What write queue length does an incoming req see
system.mem_ctrls.bytesPerActivate::samples      3534409                       # Bytes accessed per row activation
system.mem_ctrls.bytesPerActivate::mean    143.158531                       # Bytes accessed per row activation
system.mem_ctrls.bytesPerActivate::gmean    88.835824                       # Bytes accessed per row activation
system.mem_ctrls.bytesPerActivate::stdev   224.741910                       # Bytes accessed per row activation
system.mem_ctrls.bytesPerActivate::0-127      2830834     80.09%     80.09% # Bytes accessed per row activation
system.mem_ctrls.bytesPerActivate::128-255       290511      8.22%     88.31% # Bytes accessed per row activation
system.mem_ctrls.bytesPerActivate::256-383        97597      2.76%     91.07% # Bytes accessed per row activation
system.mem_ctrls.bytesPerActivate::384-511        49219      1.39%     92.47% # Bytes accessed per row activation
system.mem_ctrls.bytesPerActivate::512-639        38790      1.10%     93.56% # Bytes accessed per row activation
system.mem_ctrls.bytesPerActivate::640-767        30170      0.85%     94.42% # Bytes accessed per row activation
system.mem_ctrls.bytesPerActivate::768-895        26114      0.74%     95.16% # Bytes accessed per row activation
system.mem_ctrls.bytesPerActivate::896-1023        22490      0.64%     95.79% # Bytes accessed per row activation
system.mem_ctrls.bytesPerActivate::1024-1151       148684      4.21%    100.00% # Bytes accessed per row activation
system.mem_ctrls.bytesPerActivate::total      3534409                       # Bytes accessed per row activation
system.mem_ctrls.rdPerTurnAround::samples       159962                       # Reads before turning the bus around for writes
system.mem_ctrls.rdPerTurnAround::mean      33.008683                       # Reads before turning the bus around for writes
system.mem_ctrls.rdPerTurnAround::stdev    139.838539                       # Reads before turning the bus around for writes
system.mem_ctrls.rdPerTurnAround::0-2047       159960    100.00%    100.00% # Reads before turning the bus around for writes
system.mem_ctrls.rdPerTurnAround::2048-4095            1      0.00%    100.00% # Reads before turning the bus around for writes
system.mem_ctrls.rdPerTurnAround::53248-55295            1      0.00%    100.00% # Reads before turning the bus around for writes
system.mem_ctrls.rdPerTurnAround::total        159962                       # Reads before turning the bus around for writes
system.mem_ctrls.wrPerTurnAround::samples       159962                       # Writes before turning the bus around for reads
system.mem_ctrls.wrPerTurnAround::mean      16.712938                       # Writes before turning the bus around for reads
system.mem_ctrls.wrPerTurnAround::gmean     16.681701                       # Writes before turning the bus around for reads
system.mem_ctrls.wrPerTurnAround::stdev      1.049382                       # Writes before turning the bus around for reads
system.mem_ctrls.wrPerTurnAround::16           104245     65.17%     65.17% # Writes before turning the bus around for reads
system.mem_ctrls.wrPerTurnAround::17             5107      3.19%     68.36% # Writes before turning the bus around for reads
system.mem_ctrls.wrPerTurnAround::18            45296     28.32%     96.68% # Writes before turning the bus around for reads
system.mem_ctrls.wrPerTurnAround::19             4090      2.56%     99.23% # Writes before turning the bus around for reads
system.mem_ctrls.wrPerTurnAround::20              745      0.47%     99.70% # Writes before turning the bus around for reads
system.mem_ctrls.wrPerTurnAround::21              216      0.14%     99.84% # Writes before turning the bus around for reads
system.mem_ctrls.wrPerTurnAround::22              109      0.07%     99.90% # Writes before turning the bus around for reads
system.mem_ctrls.wrPerTurnAround::23               60      0.04%     99.94% # Writes before turning the bus around for reads
system.mem_ctrls.wrPerTurnAround::24               30      0.02%     99.96% # Writes before turning the bus around for reads
system.mem_ctrls.wrPerTurnAround::25               26      0.02%     99.98% # Writes before turning the bus around for reads
system.mem_ctrls.wrPerTurnAround::26               12      0.01%     99.98% # Writes before turning the bus around for reads
system.mem_ctrls.wrPerTurnAround::27               12      0.01%     99.99% # Writes before turning the bus around for reads
system.mem_ctrls.wrPerTurnAround::28                5      0.00%     99.99% # Writes before turning the bus around for reads
system.mem_ctrls.wrPerTurnAround::29                1      0.00%     99.99% # Writes before turning the bus around for reads
system.mem_ctrls.wrPerTurnAround::30                2      0.00%    100.00% # Writes before turning the bus around for reads
system.mem_ctrls.wrPerTurnAround::32                1      0.00%    100.00% # Writes before turning the bus around for reads
system.mem_ctrls.wrPerTurnAround::33                2      0.00%    100.00% # Writes before turning the bus around for reads
system.mem_ctrls.wrPerTurnAround::34                2      0.00%    100.00% # Writes before turning the bus around for reads
system.mem_ctrls.wrPerTurnAround::43                1      0.00%    100.00% # Writes before turning the bus around for reads
system.mem_ctrls.wrPerTurnAround::total        159962                       # Writes before turning the bus around for reads
system.mem_ctrls.totQLat                  78963366245                       # Total ticks spent queuing
system.mem_ctrls.totMemAccLat            177073078745                       # Total ticks spent from burst creation until serviced by the DRAM
system.mem_ctrls.totBusLat                26162590000                       # Total ticks spent in databus transfers
system.mem_ctrls.avgQLat                     15090.89                       # Average queueing delay per DRAM burst
system.mem_ctrls.avgBusLat                    5000.00                       # Average bus latency per DRAM burst
system.mem_ctrls.avgMemAccLat                33840.89                       # Average memory access latency per DRAM burst
system.mem_ctrls.avgRdBW                       257.12                       # Average DRAM read bandwidth in MiByte/s
system.mem_ctrls.avgWrBW                       131.37                       # Average achieved write bandwidth in MiByte/s
system.mem_ctrls.avgRdBWSys                    128.60                       # Average system read bandwidth in MiByte/s
system.mem_ctrls.avgWrBWSys                     75.76                       # Average system write bandwidth in MiByte/s
system.mem_ctrls.peakBW                      12800.00                       # Theoretical peak bandwidth in MiByte/s
system.mem_ctrls.busUtil                         3.04                       # Data bus utilization in percentage
system.mem_ctrls.busUtilRead                     2.01                       # Data bus utilization in percentage for reads
system.mem_ctrls.busUtilWrite                    1.03                       # Data bus utilization in percentage for writes
system.mem_ctrls.avgRdQLen                       1.00                       # Average read queue length when enqueuing
system.mem_ctrls.avgWrQLen                      24.85                       # Average write queue length when enqueuing
system.mem_ctrls.readRowHits                  3079086                       # Number of row buffer hits during reads
system.mem_ctrls.writeRowHits                 1292454                       # Number of row buffer hits during writes
system.mem_ctrls.readRowHitRate                 58.85                       # Row buffer hit rate for reads
system.mem_ctrls.writeRowHitRate                48.34                       # Row buffer hit rate for writes
system.mem_ctrls.avgGap                     156582.36                       # Average gap between requests
system.mem_ctrls.pageHitRate                    55.29                       # Row buffer hit rate, read and write combined
system.mem_ctrls_0.actEnergy              13393568160                       # Energy for activate commands per rank (pJ)
system.mem_ctrls_0.preEnergy               7307998500                       # Energy for precharge commands per rank (pJ)
system.mem_ctrls_0.readEnergy             20557508400                       # Energy for read commands per rank (pJ)
system.mem_ctrls_0.writeEnergy             8657934480                       # Energy for write commands per rank (pJ)
system.mem_ctrls_0.refreshEnergy          85582511040                       # Energy for refresh commands per rank (pJ)
system.mem_ctrls_0.actBackEnergy         368393272875                       # Energy for active background per rank (pJ)
system.mem_ctrls_0.preBackEnergy         463028939250                       # Energy for precharge background per rank (pJ)
system.mem_ctrls_0.totalEnergy           966921732705                       # Total energy per rank (pJ)
system.mem_ctrls_0.averagePower            737.938323                       # Core power per rank (mW)
system.mem_ctrls_0.memoryStateTime::IDLE 763563013500                       # Time in different power states
system.mem_ctrls_0.memoryStateTime::REF   43490720000                       # Time in different power states
system.mem_ctrls_0.memoryStateTime::PRE_PDN            0                       # Time in different power states
system.mem_ctrls_0.memoryStateTime::ACT  495365598250                       # Time in different power states
system.mem_ctrls_0.memoryStateTime::ACT_PDN            0                       # Time in different power states
system.mem_ctrls_1.actEnergy              13378319640                       # Energy for activate commands per rank (pJ)
system.mem_ctrls_1.preEnergy               7299678375                       # Energy for precharge commands per rank (pJ)
system.mem_ctrls_1.readEnergy             20627482200                       # Energy for read commands per rank (pJ)
system.mem_ctrls_1.writeEnergy             8665807680                       # Energy for write commands per rank (pJ)
system.mem_ctrls_1.refreshEnergy          85582511040                       # Energy for refresh commands per rank (pJ)
system.mem_ctrls_1.actBackEnergy         369594502560                       # Energy for active background per rank (pJ)
system.mem_ctrls_1.preBackEnergy         461975229000                       # Energy for precharge background per rank (pJ)
system.mem_ctrls_1.totalEnergy           967123530495                       # Total energy per rank (pJ)
system.mem_ctrls_1.averagePower            738.092332                       # Core power per rank (mW)
system.mem_ctrls_1.memoryStateTime::IDLE 762104667000                       # Time in different power states
system.mem_ctrls_1.memoryStateTime::REF   43490720000                       # Time in different power states
system.mem_ctrls_1.memoryStateTime::PRE_PDN            0                       # Time in different power states
system.mem_ctrls_1.memoryStateTime::ACT  496826514000                       # Time in different power states
system.mem_ctrls_1.memoryStateTime::ACT_PDN            0                       # Time in different power states
system.cpu_voltage_domain.voltage                   1                       # Voltage in Volts
system.cpu_clk_domain.clock                       500                       # Clock period in ticks
system.cpu0.apic_clk_domain.clock                8000                       # Clock period in ticks
system.cpu0.numCycles                      2603387512                       # number of cpu cycles simulated
system.cpu0.numWorkItemsStarted                     0                       # number of work items this cpu started
system.cpu0.numWorkItemsCompleted                   0                       # number of work items this cpu completed
system.cpu0.kern.inst.arm                           0                       # number of arm instructions executed
system.cpu0.kern.inst.quiesce                       0                       # number of quiesce instructions executed
system.cpu0.committedInsts                    3107544                       # Number of instructions committed
system.cpu0.committedOps                      6226319                       # Number of ops (including micro ops) committed
system.cpu0.num_int_alu_accesses              6117227                       # Number of integer alu accesses
system.cpu0.num_fp_alu_accesses                  1826                       # Number of float alu accesses
system.cpu0.num_func_calls                     164490                       # number of times a function call or return occured
system.cpu0.num_conditional_control_insts       512798                       # number of instructions that are conditional controls
system.cpu0.num_int_insts                     6117227                       # number of integer instructions
system.cpu0.num_fp_insts                         1826                       # number of float instructions
system.cpu0.num_int_register_reads           12190175                       # number of times the integer registers were read
system.cpu0.num_int_register_writes           4975199                       # number of times the integer registers were written
system.cpu0.num_fp_register_reads                3068                       # number of times the floating registers were read
system.cpu0.num_fp_register_writes               1448                       # number of times the floating registers were written
system.cpu0.num_cc_register_reads             3876354                       # number of times the CC registers were read
system.cpu0.num_cc_register_writes            2123434                       # number of times the CC registers were written
system.cpu0.num_mem_refs                      1404911                       # number of memory refs
system.cpu0.num_load_insts                     906008                       # Number of load instructions
system.cpu0.num_store_insts                    498903                       # Number of store instructions
system.cpu0.num_idle_cycles              2589867008.031099                       # Number of idle cycles
system.cpu0.num_busy_cycles              13520503.968901                       # Number of busy cycles
system.cpu0.not_idle_fraction                0.005193                       # Percentage of non-idle cycles
system.cpu0.idle_fraction                    0.994807                       # Percentage of idle cycles
system.cpu0.Branches                           707995                       # Number of branches fetched
system.cpu0.op_class::No_OpClass                43019      0.69%      0.69% # Class of executed instruction
system.cpu0.op_class::IntAlu                  4758823     76.43%     77.12% # Class of executed instruction
system.cpu0.op_class::IntMult                    5251      0.08%     77.20% # Class of executed instruction
system.cpu0.op_class::IntDiv                    13029      0.21%     77.41% # Class of executed instruction
system.cpu0.op_class::FloatAdd                   1376      0.02%     77.44% # Class of executed instruction
system.cpu0.op_class::FloatCmp                      0      0.00%     77.44% # Class of executed instruction
system.cpu0.op_class::FloatCvt                      0      0.00%     77.44% # Class of executed instruction
system.cpu0.op_class::FloatMult                     0      0.00%     77.44% # Class of executed instruction
system.cpu0.op_class::FloatDiv                      0      0.00%     77.44% # Class of executed instruction
system.cpu0.op_class::FloatSqrt                     0      0.00%     77.44% # Class of executed instruction
system.cpu0.op_class::SimdAdd                       0      0.00%     77.44% # Class of executed instruction
system.cpu0.op_class::SimdAddAcc                    0      0.00%     77.44% # Class of executed instruction
system.cpu0.op_class::SimdAlu                       0      0.00%     77.44% # Class of executed instruction
system.cpu0.op_class::SimdCmp                       0      0.00%     77.44% # Class of executed instruction
system.cpu0.op_class::SimdCvt                       0      0.00%     77.44% # Class of executed instruction
system.cpu0.op_class::SimdMisc                      0      0.00%     77.44% # Class of executed instruction
system.cpu0.op_class::SimdMult                      0      0.00%     77.44% # Class of executed instruction
system.cpu0.op_class::SimdMultAcc                   0      0.00%     77.44% # Class of executed instruction
system.cpu0.op_class::SimdShift                     0      0.00%     77.44% # Class of executed instruction
system.cpu0.op_class::SimdShiftAcc                  0      0.00%     77.44% # Class of executed instruction
system.cpu0.op_class::SimdSqrt                      0      0.00%     77.44% # Class of executed instruction
system.cpu0.op_class::SimdFloatAdd                  0      0.00%     77.44% # Class of executed instruction
system.cpu0.op_class::SimdFloatAlu                  0      0.00%     77.44% # Class of executed instruction
system.cpu0.op_class::SimdFloatCmp                  0      0.00%     77.44% # Class of executed instruction
system.cpu0.op_class::SimdFloatCvt                  0      0.00%     77.44% # Class of executed instruction
system.cpu0.op_class::SimdFloatDiv                  0      0.00%     77.44% # Class of executed instruction
system.cpu0.op_class::SimdFloatMisc                 0      0.00%     77.44% # Class of executed instruction
system.cpu0.op_class::SimdFloatMult                 0      0.00%     77.44% # Class of executed instruction
system.cpu0.op_class::SimdFloatMultAcc              0      0.00%     77.44% # Class of executed instruction
system.cpu0.op_class::SimdFloatSqrt                 0      0.00%     77.44% # Class of executed instruction
system.cpu0.op_class::MemRead                  906008     14.55%     91.99% # Class of executed instruction
system.cpu0.op_class::MemWrite                 498903      8.01%    100.00% # Class of executed instruction
system.cpu0.op_class::IprAccess                     0      0.00%    100.00% # Class of executed instruction
system.cpu0.op_class::InstPrefetch                  0      0.00%    100.00% # Class of executed instruction
system.cpu0.op_class::total                   6226409                       # Class of executed instruction
system.cpu1.apic_clk_domain.clock                8000                       # Clock period in ticks
system.cpu1.numCycles                      2609062228                       # number of cpu cycles simulated
system.cpu1.numWorkItemsStarted                     0                       # number of work items this cpu started
system.cpu1.numWorkItemsCompleted                   0                       # number of work items this cpu completed
system.cpu1.kern.inst.arm                           0                       # number of arm instructions executed
system.cpu1.kern.inst.quiesce                       0                       # number of quiesce instructions executed
system.cpu1.committedInsts                     950562                       # Number of instructions committed
system.cpu1.committedOps                      2045135                       # Number of ops (including micro ops) committed
system.cpu1.num_int_alu_accesses              2001535                       # Number of integer alu accesses
system.cpu1.num_fp_alu_accesses                    39                       # Number of float alu accesses
system.cpu1.num_func_calls                      59232                       # number of times a function call or return occured
system.cpu1.num_conditional_control_insts       137326                       # number of instructions that are conditional controls
system.cpu1.num_int_insts                     2001535                       # number of integer instructions
system.cpu1.num_fp_insts                           39                       # number of float instructions
system.cpu1.num_int_register_reads            4077188                       # number of times the integer registers were read
system.cpu1.num_int_register_writes           1653249                       # number of times the integer registers were written
system.cpu1.num_fp_register_reads                  63                       # number of times the floating registers were read
system.cpu1.num_fp_register_writes                 31                       # number of times the floating registers were written
system.cpu1.num_cc_register_reads             1091143                       # number of times the CC registers were read
system.cpu1.num_cc_register_writes             594190                       # number of times the CC registers were written
system.cpu1.num_mem_refs                       493691                       # number of memory refs
system.cpu1.num_load_insts                     307008                       # Number of load instructions
system.cpu1.num_store_insts                    186683                       # Number of store instructions
system.cpu1.num_idle_cycles              2604664212.067989                       # Number of idle cycles
system.cpu1.num_busy_cycles              4398015.932011                       # Number of busy cycles
system.cpu1.not_idle_fraction                0.001686                       # Percentage of non-idle cycles
system.cpu1.idle_fraction                    0.998314                       # Percentage of idle cycles
system.cpu1.Branches                           215569                       # Number of branches fetched
system.cpu1.op_class::No_OpClass                33572      1.64%      1.64% # Class of executed instruction
system.cpu1.op_class::IntAlu                  1502542     73.47%     75.11% # Class of executed instruction
system.cpu1.op_class::IntMult                    3920      0.19%     75.30% # Class of executed instruction
system.cpu1.op_class::IntDiv                    11402      0.56%     75.86% # Class of executed instruction
system.cpu1.op_class::FloatAdd                     30      0.00%     75.86% # Class of executed instruction
system.cpu1.op_class::FloatCmp                      0      0.00%     75.86% # Class of executed instruction
system.cpu1.op_class::FloatCvt                      0      0.00%     75.86% # Class of executed instruction
system.cpu1.op_class::FloatMult                     0      0.00%     75.86% # Class of executed instruction
system.cpu1.op_class::FloatDiv                      0      0.00%     75.86% # Class of executed instruction
system.cpu1.op_class::FloatSqrt                     0      0.00%     75.86% # Class of executed instruction
system.cpu1.op_class::SimdAdd                       0      0.00%     75.86% # Class of executed instruction
system.cpu1.op_class::SimdAddAcc                    0      0.00%     75.86% # Class of executed instruction
system.cpu1.op_class::SimdAlu                       0      0.00%     75.86% # Class of executed instruction
system.cpu1.op_class::SimdCmp                       0      0.00%     75.86% # Class of executed instruction
system.cpu1.op_class::SimdCvt                       0      0.00%     75.86% # Class of executed instruction
system.cpu1.op_class::SimdMisc                      0      0.00%     75.86% # Class of executed instruction
system.cpu1.op_class::SimdMult                      0      0.00%     75.86% # Class of executed instruction
system.cpu1.op_class::SimdMultAcc                   0      0.00%     75.86% # Class of executed instruction
system.cpu1.op_class::SimdShift                     0      0.00%     75.86% # Class of executed instruction
system.cpu1.op_class::SimdShiftAcc                  0      0.00%     75.86% # Class of executed instruction
system.cpu1.op_class::SimdSqrt                      0      0.00%     75.86% # Class of executed instruction
system.cpu1.op_class::SimdFloatAdd                  0      0.00%     75.86% # Class of executed instruction
system.cpu1.op_class::SimdFloatAlu                  0      0.00%     75.86% # Class of executed instruction
system.cpu1.op_class::SimdFloatCmp                  0      0.00%     75.86% # Class of executed instruction
system.cpu1.op_class::SimdFloatCvt                  0      0.00%     75.86% # Class of executed instruction
system.cpu1.op_class::SimdFloatDiv                  0      0.00%     75.86% # Class of executed instruction
system.cpu1.op_class::SimdFloatMisc                 0      0.00%     75.86% # Class of executed instruction
system.cpu1.op_class::SimdFloatMult                 0      0.00%     75.86% # Class of executed instruction
system.cpu1.op_class::SimdFloatMultAcc              0      0.00%     75.86% # Class of executed instruction
system.cpu1.op_class::SimdFloatSqrt                 0      0.00%     75.86% # Class of executed instruction
system.cpu1.op_class::MemRead                  307008     15.01%     90.87% # Class of executed instruction
system.cpu1.op_class::MemWrite                 186683      9.13%    100.00% # Class of executed instruction
system.cpu1.op_class::IprAccess                     0      0.00%    100.00% # Class of executed instruction
system.cpu1.op_class::InstPrefetch                  0      0.00%    100.00% # Class of executed instruction
system.cpu1.op_class::total                   2045157                       # Class of executed instruction
system.cpu2.apic_clk_domain.clock                8000                       # Clock period in ticks
system.cpu2.numCycles                      2607049067                       # number of cpu cycles simulated
system.cpu2.numWorkItemsStarted                     0                       # number of work items this cpu started
system.cpu2.numWorkItemsCompleted                   0                       # number of work items this cpu completed
system.cpu2.kern.inst.arm                           0                       # number of arm instructions executed
system.cpu2.kern.inst.quiesce                       0                       # number of quiesce instructions executed
system.cpu2.committedInsts                  533897359                       # Number of instructions committed
system.cpu2.committedOps                    709270489                       # Number of ops (including micro ops) committed
system.cpu2.num_int_alu_accesses            508892435                       # Number of integer alu accesses
system.cpu2.num_fp_alu_accesses             331101068                       # Number of float alu accesses
system.cpu2.num_func_calls                     435499                       # number of times a function call or return occured
system.cpu2.num_conditional_control_insts     31472457                       # number of instructions that are conditional controls
system.cpu2.num_int_insts                   508892435                       # number of integer instructions
system.cpu2.num_fp_insts                    331101068                       # number of float instructions
system.cpu2.num_int_register_reads         1070294240                       # number of times the integer registers were read
system.cpu2.num_int_register_writes         339916046                       # number of times the integer registers were written
system.cpu2.num_fp_register_reads           564014582                       # number of times the floating registers were read
system.cpu2.num_fp_register_writes          276695748                       # number of times the floating registers were written
system.cpu2.num_cc_register_reads           220329645                       # number of times the CC registers were read
system.cpu2.num_cc_register_writes          241386355                       # number of times the CC registers were written
system.cpu2.num_mem_refs                    152861842                       # number of memory refs
system.cpu2.num_load_insts                   94776588                       # Number of load instructions
system.cpu2.num_store_insts                  58085254                       # Number of store instructions
system.cpu2.num_idle_cycles              9520996.636805                       # Number of idle cycles
system.cpu2.num_busy_cycles              2597528070.363195                       # Number of busy cycles
system.cpu2.not_idle_fraction                0.996348                       # Percentage of non-idle cycles
system.cpu2.idle_fraction                    0.003652                       # Percentage of idle cycles
system.cpu2.Branches                         33887876                       # Number of branches fetched
system.cpu2.op_class::No_OpClass               955807      0.13%      0.13% # Class of executed instruction
system.cpu2.op_class::IntAlu                444141120     62.62%     62.75% # Class of executed instruction
system.cpu2.op_class::IntMult                   24826      0.00%     62.76% # Class of executed instruction
system.cpu2.op_class::IntDiv                   145465      0.02%     62.78% # Class of executed instruction
system.cpu2.op_class::FloatAdd              111149730     15.67%     78.45% # Class of executed instruction
system.cpu2.op_class::FloatCmp                      0      0.00%     78.45% # Class of executed instruction
system.cpu2.op_class::FloatCvt                      0      0.00%     78.45% # Class of executed instruction
system.cpu2.op_class::FloatMult                     0      0.00%     78.45% # Class of executed instruction
system.cpu2.op_class::FloatDiv                      0      0.00%     78.45% # Class of executed instruction
system.cpu2.op_class::FloatSqrt                     0      0.00%     78.45% # Class of executed instruction
system.cpu2.op_class::SimdAdd                       0      0.00%     78.45% # Class of executed instruction
system.cpu2.op_class::SimdAddAcc                    0      0.00%     78.45% # Class of executed instruction
system.cpu2.op_class::SimdAlu                       0      0.00%     78.45% # Class of executed instruction
system.cpu2.op_class::SimdCmp                       0      0.00%     78.45% # Class of executed instruction
system.cpu2.op_class::SimdCvt                       0      0.00%     78.45% # Class of executed instruction
system.cpu2.op_class::SimdMisc                      0      0.00%     78.45% # Class of executed instruction
system.cpu2.op_class::SimdMult                      0      0.00%     78.45% # Class of executed instruction
system.cpu2.op_class::SimdMultAcc                   0      0.00%     78.45% # Class of executed instruction
system.cpu2.op_class::SimdShift                     0      0.00%     78.45% # Class of executed instruction
system.cpu2.op_class::SimdShiftAcc                  0      0.00%     78.45% # Class of executed instruction
system.cpu2.op_class::SimdSqrt                      0      0.00%     78.45% # Class of executed instruction
system.cpu2.op_class::SimdFloatAdd                  0      0.00%     78.45% # Class of executed instruction
system.cpu2.op_class::SimdFloatAlu                  0      0.00%     78.45% # Class of executed instruction
system.cpu2.op_class::SimdFloatCmp                  0      0.00%     78.45% # Class of executed instruction
system.cpu2.op_class::SimdFloatCvt                  0      0.00%     78.45% # Class of executed instruction
system.cpu2.op_class::SimdFloatDiv                  0      0.00%     78.45% # Class of executed instruction
system.cpu2.op_class::SimdFloatMisc                 0      0.00%     78.45% # Class of executed instruction
system.cpu2.op_class::SimdFloatMult                 0      0.00%     78.45% # Class of executed instruction
system.cpu2.op_class::SimdFloatMultAcc              0      0.00%     78.45% # Class of executed instruction
system.cpu2.op_class::SimdFloatSqrt                 0      0.00%     78.45% # Class of executed instruction
system.cpu2.op_class::MemRead                94776588     13.36%     91.81% # Class of executed instruction
system.cpu2.op_class::MemWrite               58085254      8.19%    100.00% # Class of executed instruction
system.cpu2.op_class::IprAccess                     0      0.00%    100.00% # Class of executed instruction
system.cpu2.op_class::InstPrefetch                  0      0.00%    100.00% # Class of executed instruction
system.cpu2.op_class::total                 709278790                       # Class of executed instruction
system.cpu3.apic_clk_domain.clock                8000                       # Clock period in ticks
system.cpu3.numCycles                      2604915501                       # number of cpu cycles simulated
system.cpu3.numWorkItemsStarted                     0                       # number of work items this cpu started
system.cpu3.numWorkItemsCompleted                   0                       # number of work items this cpu completed
system.cpu3.kern.inst.arm                           0                       # number of arm instructions executed
system.cpu3.kern.inst.quiesce                       0                       # number of quiesce instructions executed
system.cpu3.committedInsts                     993915                       # Number of instructions committed
system.cpu3.committedOps                      2134338                       # Number of ops (including micro ops) committed
system.cpu3.num_int_alu_accesses              2083415                       # Number of integer alu accesses
system.cpu3.num_fp_alu_accesses                     0                       # Number of float alu accesses
system.cpu3.num_func_calls                      57870                       # number of times a function call or return occured
system.cpu3.num_conditional_control_insts       153680                       # number of instructions that are conditional controls
system.cpu3.num_int_insts                     2083415                       # number of integer instructions
system.cpu3.num_fp_insts                            0                       # number of float instructions
system.cpu3.num_int_register_reads            4232761                       # number of times the integer registers were read
system.cpu3.num_int_register_writes           1728715                       # number of times the integer registers were written
system.cpu3.num_fp_register_reads                   0                       # number of times the floating registers were read
system.cpu3.num_fp_register_writes                  0                       # number of times the floating registers were written
system.cpu3.num_cc_register_reads             1204806                       # number of times the CC registers were read
system.cpu3.num_cc_register_writes             628994                       # number of times the CC registers were written
system.cpu3.num_mem_refs                       505071                       # number of memory refs
system.cpu3.num_load_insts                     316268                       # Number of load instructions
system.cpu3.num_store_insts                    188803                       # Number of store instructions
system.cpu3.num_idle_cycles              2600539970.501313                       # Number of idle cycles
system.cpu3.num_busy_cycles              4375530.498687                       # Number of busy cycles
system.cpu3.not_idle_fraction                0.001680                       # Percentage of non-idle cycles
system.cpu3.idle_fraction                    0.998320                       # Percentage of idle cycles
system.cpu3.Branches                           230441                       # Number of branches fetched
system.cpu3.op_class::No_OpClass                38926      1.82%      1.82% # Class of executed instruction
system.cpu3.op_class::IntAlu                  1571376     73.62%     75.45% # Class of executed instruction
system.cpu3.op_class::IntMult                    4961      0.23%     75.68% # Class of executed instruction
system.cpu3.op_class::IntDiv                    14007      0.66%     76.34% # Class of executed instruction
system.cpu3.op_class::FloatAdd                      0      0.00%     76.34% # Class of executed instruction
system.cpu3.op_class::FloatCmp                      0      0.00%     76.34% # Class of executed instruction
system.cpu3.op_class::FloatCvt                      0      0.00%     76.34% # Class of executed instruction
system.cpu3.op_class::FloatMult                     0      0.00%     76.34% # Class of executed instruction
system.cpu3.op_class::FloatDiv                      0      0.00%     76.34% # Class of executed instruction
system.cpu3.op_class::FloatSqrt                     0      0.00%     76.34% # Class of executed instruction
system.cpu3.op_class::SimdAdd                       0      0.00%     76.34% # Class of executed instruction
system.cpu3.op_class::SimdAddAcc                    0      0.00%     76.34% # Class of executed instruction
system.cpu3.op_class::SimdAlu                       0      0.00%     76.34% # Class of executed instruction
system.cpu3.op_class::SimdCmp                       0      0.00%     76.34% # Class of executed instruction
system.cpu3.op_class::SimdCvt                       0      0.00%     76.34% # Class of executed instruction
system.cpu3.op_class::SimdMisc                      0      0.00%     76.34% # Class of executed instruction
system.cpu3.op_class::SimdMult                      0      0.00%     76.34% # Class of executed instruction
system.cpu3.op_class::SimdMultAcc                   0      0.00%     76.34% # Class of executed instruction
system.cpu3.op_class::SimdShift                     0      0.00%     76.34% # Class of executed instruction
system.cpu3.op_class::SimdShiftAcc                  0      0.00%     76.34% # Class of executed instruction
system.cpu3.op_class::SimdSqrt                      0      0.00%     76.34% # Class of executed instruction
system.cpu3.op_class::SimdFloatAdd                  0      0.00%     76.34% # Class of executed instruction
system.cpu3.op_class::SimdFloatAlu                  0      0.00%     76.34% # Class of executed instruction
system.cpu3.op_class::SimdFloatCmp                  0      0.00%     76.34% # Class of executed instruction
system.cpu3.op_class::SimdFloatCvt                  0      0.00%     76.34% # Class of executed instruction
system.cpu3.op_class::SimdFloatDiv                  0      0.00%     76.34% # Class of executed instruction
system.cpu3.op_class::SimdFloatMisc                 0      0.00%     76.34% # Class of executed instruction
system.cpu3.op_class::SimdFloatMult                 0      0.00%     76.34% # Class of executed instruction
system.cpu3.op_class::SimdFloatMultAcc              0      0.00%     76.34% # Class of executed instruction
system.cpu3.op_class::SimdFloatSqrt                 0      0.00%     76.34% # Class of executed instruction
system.cpu3.op_class::MemRead                  316268     14.82%     91.15% # Class of executed instruction
system.cpu3.op_class::MemWrite                 188803      8.85%    100.00% # Class of executed instruction
system.cpu3.op_class::IprAccess                     0      0.00%    100.00% # Class of executed instruction
system.cpu3.op_class::InstPrefetch                  0      0.00%    100.00% # Class of executed instruction
system.cpu3.op_class::total                   2134341                       # Class of executed instruction
system.iobus.trans_dist::ReadReq                  706                       # Transaction distribution
system.iobus.trans_dist::ReadResp                 706                       # Transaction distribution
system.iobus.trans_dist::WriteReq                1567                       # Transaction distribution
system.iobus.trans_dist::WriteResp               1567                       # Transaction distribution
system.iobus.trans_dist::MessageReq                10                       # Transaction distribution
system.iobus.trans_dist::MessageResp               10                       # Transaction distribution
system.iobus.pkt_count_system.pc.south_bridge.io_apic.int_master::system.ruby.l1_cntrl1.sequencer.pio-slave-port            2                       # Packet count per connected master and slave (bytes)
system.iobus.pkt_count_system.pc.south_bridge.io_apic.int_master::system.ruby.l1_cntrl2.sequencer.pio-slave-port            2                       # Packet count per connected master and slave (bytes)
system.iobus.pkt_count_system.pc.south_bridge.io_apic.int_master::total            4                       # Packet count per connected master and slave (bytes)
system.iobus.pkt_count_system.ruby.l1_cntrl0.sequencer.mem-master-port::system.ruby.l1_cntrl0.sequencer.pio-slave-port          672                       # Packet count per connected master and slave (bytes)
system.iobus.pkt_count_system.ruby.l1_cntrl0.sequencer.mem-master-port::system.ruby.l1_cntrl1.sequencer.pio-slave-port            2                       # Packet count per connected master and slave (bytes)
system.iobus.pkt_count_system.ruby.l1_cntrl0.sequencer.mem-master-port::system.ruby.l1_cntrl2.sequencer.pio-slave-port            2                       # Packet count per connected master and slave (bytes)
system.iobus.pkt_count_system.ruby.l1_cntrl0.sequencer.mem-master-port::system.ruby.l1_cntrl3.sequencer.pio-slave-port            2                       # Packet count per connected master and slave (bytes)
system.iobus.pkt_count_system.ruby.l1_cntrl0.sequencer.mem-master-port::total          678                       # Packet count per connected master and slave (bytes)
system.iobus.pkt_count_system.ruby.l1_cntrl1.sequencer.mem-master-port::system.pc.south_bridge.io_apic.pio            6                       # Packet count per connected master and slave (bytes)
system.iobus.pkt_count_system.ruby.l1_cntrl1.sequencer.mem-master-port::system.pc.com_1.pio         1854                       # Packet count per connected master and slave (bytes)
system.iobus.pkt_count_system.ruby.l1_cntrl1.sequencer.mem-master-port::system.ruby.l1_cntrl1.sequencer.pio-slave-port          664                       # Packet count per connected master and slave (bytes)
system.iobus.pkt_count_system.ruby.l1_cntrl1.sequencer.mem-master-port::system.ruby.l1_cntrl2.sequencer.pio-slave-port            2                       # Packet count per connected master and slave (bytes)
system.iobus.pkt_count_system.ruby.l1_cntrl1.sequencer.mem-master-port::total         2526                       # Packet count per connected master and slave (bytes)
system.iobus.pkt_count_system.ruby.l1_cntrl2.sequencer.mem-master-port::system.pc.south_bridge.io_apic.pio            8                       # Packet count per connected master and slave (bytes)
system.iobus.pkt_count_system.ruby.l1_cntrl2.sequencer.mem-master-port::system.ruby.l1_cntrl1.sequencer.pio-slave-port            2                       # Packet count per connected master and slave (bytes)
system.iobus.pkt_count_system.ruby.l1_cntrl2.sequencer.mem-master-port::system.ruby.l1_cntrl2.sequencer.pio-slave-port          676                       # Packet count per connected master and slave (bytes)
system.iobus.pkt_count_system.ruby.l1_cntrl2.sequencer.mem-master-port::system.ruby.l1_cntrl3.sequencer.pio-slave-port            4                       # Packet count per connected master and slave (bytes)
system.iobus.pkt_count_system.ruby.l1_cntrl2.sequencer.mem-master-port::total          690                       # Packet count per connected master and slave (bytes)
system.iobus.pkt_count_system.ruby.l1_cntrl3.sequencer.mem-master-port::system.pc.com_1.pio            2                       # Packet count per connected master and slave (bytes)
system.iobus.pkt_count_system.ruby.l1_cntrl3.sequencer.mem-master-port::system.ruby.l1_cntrl0.sequencer.pio-slave-port            2                       # Packet count per connected master and slave (bytes)
system.iobus.pkt_count_system.ruby.l1_cntrl3.sequencer.mem-master-port::system.ruby.l1_cntrl3.sequencer.pio-slave-port          664                       # Packet count per connected master and slave (bytes)
system.iobus.pkt_count_system.ruby.l1_cntrl3.sequencer.mem-master-port::total          668                       # Packet count per connected master and slave (bytes)
system.iobus.pkt_count::total                    4566                       # Packet count per connected master and slave (bytes)
system.iobus.pkt_size_system.pc.south_bridge.io_apic.int_master::system.ruby.l1_cntrl1.sequencer.pio-slave-port            4                       # Cumulative packet size per connected master and slave (bytes)
system.iobus.pkt_size_system.pc.south_bridge.io_apic.int_master::system.ruby.l1_cntrl2.sequencer.pio-slave-port            4                       # Cumulative packet size per connected master and slave (bytes)
system.iobus.pkt_size_system.pc.south_bridge.io_apic.int_master::total            8                       # Cumulative packet size per connected master and slave (bytes)
system.iobus.pkt_size_system.ruby.l1_cntrl0.sequencer.mem-master-port::system.ruby.l1_cntrl0.sequencer.pio-slave-port         1344                       # Cumulative packet size per connected master and slave (bytes)
system.iobus.pkt_size_system.ruby.l1_cntrl0.sequencer.mem-master-port::system.ruby.l1_cntrl1.sequencer.pio-slave-port            4                       # Cumulative packet size per connected master and slave (bytes)
system.iobus.pkt_size_system.ruby.l1_cntrl0.sequencer.mem-master-port::system.ruby.l1_cntrl2.sequencer.pio-slave-port            4                       # Cumulative packet size per connected master and slave (bytes)
system.iobus.pkt_size_system.ruby.l1_cntrl0.sequencer.mem-master-port::system.ruby.l1_cntrl3.sequencer.pio-slave-port            4                       # Cumulative packet size per connected master and slave (bytes)
system.iobus.pkt_size_system.ruby.l1_cntrl0.sequencer.mem-master-port::total         1356                       # Cumulative packet size per connected master and slave (bytes)
system.iobus.pkt_size_system.ruby.l1_cntrl1.sequencer.mem-master-port::system.pc.south_bridge.io_apic.pio           12                       # Cumulative packet size per connected master and slave (bytes)
system.iobus.pkt_size_system.ruby.l1_cntrl1.sequencer.mem-master-port::system.pc.com_1.pio          927                       # Cumulative packet size per connected master and slave (bytes)
system.iobus.pkt_size_system.ruby.l1_cntrl1.sequencer.mem-master-port::system.ruby.l1_cntrl1.sequencer.pio-slave-port         1328                       # Cumulative packet size per connected master and slave (bytes)
system.iobus.pkt_size_system.ruby.l1_cntrl1.sequencer.mem-master-port::system.ruby.l1_cntrl2.sequencer.pio-slave-port            4                       # Cumulative packet size per connected master and slave (bytes)
system.iobus.pkt_size_system.ruby.l1_cntrl1.sequencer.mem-master-port::total         2271                       # Cumulative packet size per connected master and slave (bytes)
system.iobus.pkt_size_system.ruby.l1_cntrl2.sequencer.mem-master-port::system.pc.south_bridge.io_apic.pio           16                       # Cumulative packet size per connected master and slave (bytes)
system.iobus.pkt_size_system.ruby.l1_cntrl2.sequencer.mem-master-port::system.ruby.l1_cntrl1.sequencer.pio-slave-port            4                       # Cumulative packet size per connected master and slave (bytes)
system.iobus.pkt_size_system.ruby.l1_cntrl2.sequencer.mem-master-port::system.ruby.l1_cntrl2.sequencer.pio-slave-port         1352                       # Cumulative packet size per connected master and slave (bytes)
system.iobus.pkt_size_system.ruby.l1_cntrl2.sequencer.mem-master-port::system.ruby.l1_cntrl3.sequencer.pio-slave-port            8                       # Cumulative packet size per connected master and slave (bytes)
system.iobus.pkt_size_system.ruby.l1_cntrl2.sequencer.mem-master-port::total         1380                       # Cumulative packet size per connected master and slave (bytes)
system.iobus.pkt_size_system.ruby.l1_cntrl3.sequencer.mem-master-port::system.pc.com_1.pio            1                       # Cumulative packet size per connected master and slave (bytes)
system.iobus.pkt_size_system.ruby.l1_cntrl3.sequencer.mem-master-port::system.ruby.l1_cntrl0.sequencer.pio-slave-port            4                       # Cumulative packet size per connected master and slave (bytes)
system.iobus.pkt_size_system.ruby.l1_cntrl3.sequencer.mem-master-port::system.ruby.l1_cntrl3.sequencer.pio-slave-port         1328                       # Cumulative packet size per connected master and slave (bytes)
system.iobus.pkt_size_system.ruby.l1_cntrl3.sequencer.mem-master-port::total         1333                       # Cumulative packet size per connected master and slave (bytes)
system.iobus.pkt_size::total                     6348                       # Cumulative packet size per connected master and slave (bytes)
system.iobus.reqLayer8.occupancy                12998                       # Layer occupancy (ticks)
system.iobus.reqLayer8.utilization                0.0                       # Layer utilization (%)
system.iobus.reqLayer12.occupancy             1191500                       # Layer occupancy (ticks)
system.iobus.reqLayer12.utilization               0.0                       # Layer utilization (%)
system.iobus.reqLayer17.occupancy              835998                       # Layer occupancy (ticks)
system.iobus.reqLayer17.utilization               0.0                       # Layer utilization (%)
system.iobus.reqLayer18.occupancy              833000                       # Layer occupancy (ticks)
system.iobus.reqLayer18.utilization               0.0                       # Layer utilization (%)
system.iobus.reqLayer19.occupancy              880253                       # Layer occupancy (ticks)
system.iobus.reqLayer19.utilization               0.0                       # Layer utilization (%)
system.iobus.reqLayer20.occupancy              834000                       # Layer occupancy (ticks)
system.iobus.reqLayer20.utilization               0.0                       # Layer utilization (%)
system.iobus.respLayer0.occupancy                2500                       # Layer occupancy (ticks)
system.iobus.respLayer0.utilization               0.0                       # Layer utilization (%)
system.iobus.respLayer2.occupancy              510000                       # Layer occupancy (ticks)
system.iobus.respLayer2.utilization               0.0                       # Layer utilization (%)
system.iobus.respLayer4.occupancy             2126000                       # Layer occupancy (ticks)
system.iobus.respLayer4.utilization               0.0                       # Layer utilization (%)
system.iobus.respLayer6.occupancy              519500                       # Layer occupancy (ticks)
system.iobus.respLayer6.utilization               0.0                       # Layer utilization (%)
system.iobus.respLayer8.occupancy              501000                       # Layer occupancy (ticks)
system.iobus.respLayer8.utilization               0.0                       # Layer utilization (%)
system.pc.south_bridge.ide.disks.dma_read_full_pages            0                       # Number of full page size DMA reads (not PRD).
system.pc.south_bridge.ide.disks.dma_read_bytes            0                       # Number of bytes transfered via DMA reads (not PRD).
system.pc.south_bridge.ide.disks.dma_read_txs            0                       # Number of DMA read transactions (not PRD).
system.pc.south_bridge.ide.disks.dma_write_full_pages            0                       # Number of full page size DMA writes.
system.pc.south_bridge.ide.disks.dma_write_bytes            0                       # Number of bytes transfered via DMA writes.
system.pc.south_bridge.ide.disks.dma_write_txs            0                       # Number of DMA write transactions.
system.ruby.clk_domain.clock                      500                       # Clock period in ticks
system.ruby.outstanding_req_hist_seqr::bucket_size            1                      
system.ruby.outstanding_req_hist_seqr::max_bucket            9                      
system.ruby.outstanding_req_hist_seqr::samples    936956314                      
system.ruby.outstanding_req_hist_seqr::mean     1.000000                      
system.ruby.outstanding_req_hist_seqr::gmean     1.000000                      
system.ruby.outstanding_req_hist_seqr::stdev     0.000658                      
system.ruby.outstanding_req_hist_seqr    |           0      0.00%      0.00% |   936955908    100.00%    100.00% |         406      0.00%    100.00% |           0      0.00%    100.00% |           0      0.00%    100.00% |           0      0.00%    100.00% |           0      0.00%    100.00% |           0      0.00%    100.00% |           0      0.00%    100.00% |           0      0.00%    100.00%
system.ruby.outstanding_req_hist_seqr::total    936956314                      
system.ruby.latency_hist_seqr::bucket_size          256                      
system.ruby.latency_hist_seqr::max_bucket         2559                      
system.ruby.latency_hist_seqr::samples      936956314                      
system.ruby.latency_hist_seqr::mean          1.793234                      
system.ruby.latency_hist_seqr::gmean         1.050138                      
system.ruby.latency_hist_seqr::stdev        10.716934                      
system.ruby.latency_hist_seqr            |   936804154     99.98%     99.98% |       88780      0.01%     99.99% |       60511      0.01%    100.00% |        2069      0.00%    100.00% |         697      0.00%    100.00% |          90      0.00%    100.00% |          10      0.00%    100.00% |           3      0.00%    100.00% |           0      0.00%    100.00% |           0      0.00%    100.00%
system.ruby.latency_hist_seqr::total        936956314                      
system.ruby.hit_latency_hist_seqr::bucket_size            2                      
system.ruby.hit_latency_hist_seqr::max_bucket           19                      
system.ruby.hit_latency_hist_seqr::samples    931650997                      
system.ruby.hit_latency_hist_seqr::mean      1.092334                      
system.ruby.hit_latency_hist_seqr::gmean     1.022388                      
system.ruby.hit_latency_hist_seqr::stdev     0.956457                      
system.ruby.hit_latency_hist_seqr        |   923048735     99.08%     99.08% |           0      0.00%     99.08% |           0      0.00%     99.08% |           0      0.00%     99.08% |           0      0.00%     99.08% |     8602260      0.92%    100.00% |           2      0.00%    100.00% |           0      0.00%    100.00% |           0      0.00%    100.00% |           0      0.00%    100.00%
system.ruby.hit_latency_hist_seqr::total    931650997                      
system.ruby.miss_latency_hist_seqr::bucket_size          256                      
system.ruby.miss_latency_hist_seqr::max_bucket         2559                      
system.ruby.miss_latency_hist_seqr::samples      5305317                      
system.ruby.miss_latency_hist_seqr::mean   124.876204                      
system.ruby.miss_latency_hist_seqr::gmean   115.797613                      
system.ruby.miss_latency_hist_seqr::stdev    69.910362                      
system.ruby.miss_latency_hist_seqr       |     5153157     97.13%     97.13% |       88780      1.67%     98.81% |       60511      1.14%     99.95% |        2069      0.04%     99.98% |         697      0.01%    100.00% |          90      0.00%    100.00% |          10      0.00%    100.00% |           3      0.00%    100.00% |           0      0.00%    100.00% |           0      0.00%    100.00%
system.ruby.miss_latency_hist_seqr::total      5305317                      
system.ruby.L1Cache.incomplete_times_seqr           92                      
system.ruby.dir_cntrl0.probeFilter.demand_hits            0                       # Number of cache demand hits
system.ruby.dir_cntrl0.probeFilter.demand_misses            0                       # Number of cache demand misses
system.ruby.dir_cntrl0.probeFilter.demand_accesses            0                       # Number of cache demand accesses
system.ruby.l1_cntrl0.L1Dcache.demand_hits      1322879                       # Number of cache demand hits
system.ruby.l1_cntrl0.L1Dcache.demand_misses        84128                       # Number of cache demand misses
system.ruby.l1_cntrl0.L1Dcache.demand_accesses      1407007                       # Number of cache demand accesses
system.ruby.l1_cntrl0.L1Icache.demand_hits      4037510                       # Number of cache demand hits
system.ruby.l1_cntrl0.L1Icache.demand_misses        28432                       # Number of cache demand misses
system.ruby.l1_cntrl0.L1Icache.demand_accesses      4065942                       # Number of cache demand accesses
system.ruby.l1_cntrl0.L2cache.demand_hits        73798                       # Number of cache demand hits
system.ruby.l1_cntrl0.L2cache.demand_misses        38762                       # Number of cache demand misses
system.ruby.l1_cntrl0.L2cache.demand_accesses       112560                       # Number of cache demand accesses
system.ruby.l1_cntrl0.fully_busy_cycles            11                       # cycles for which number of transistions == max transitions
system.ruby.l1_cntrl1.L1Dcache.demand_hits       481183                       # Number of cache demand hits
system.ruby.l1_cntrl1.L1Dcache.demand_misses        11679                       # Number of cache demand misses
system.ruby.l1_cntrl1.L1Dcache.demand_accesses       492862                       # Number of cache demand accesses
system.ruby.l1_cntrl1.L1Icache.demand_hits      1242625                       # Number of cache demand hits
[...]
system.ruby.L1Cache_Controller.O.Other_GETS::total        21914                      
system.ruby.L1Cache_Controller.O.Merged_GETS |           0      0.00%      0.00% |           0      0.00%      0.00% |           2    100.00%    100.00% |           0      0.00%    100.00%
system.ruby.L1Cache_Controller.O.Merged_GETS::total            2                      
system.ruby.L1Cache_Controller.M.Load    |      146330      0.47%      0.47% |       97146      0.31%      0.77% |    31110067     98.89%     99.66% |      105999      0.34%    100.00%
system.ruby.L1Cache_Controller.M.Load::total     31459542                      
system.ruby.L1Cache_Controller.M.Ifetch  |     4291911      0.57%      0.57% |       99230      0.01%      0.58% |   746939762     99.39%     99.97% |      217047      0.03%    100.00%
system.ruby.L1Cache_Controller.M.Ifetch::total    751547950                      
system.ruby.L1Cache_Controller.M.Store   |       15864      1.45%      1.45% |        4340      0.40%      1.85% |     1066163     97.41%     99.26% |        8135      0.74%    100.00%
system.ruby.L1Cache_Controller.M.Store::total      1094502                      
system.ruby.L1Cache_Controller.M.L2_Replacement |         797      0.04%      0.04% |          19      0.00%      0.04% |     2101767     99.96%     99.99% |         124      0.01%    100.00%
system.ruby.L1Cache_Controller.M.L2_Replacement::total      2102707                      
system.ruby.L1Cache_Controller.M.L1_to_L2 |       15610      0.44%      0.44% |       12418      0.35%      0.79% |     3502708     98.90%     99.69% |       10918      0.31%    100.00%
system.ruby.L1Cache_Controller.M.L1_to_L2::total      3541654                      
system.ruby.L1Cache_Controller.M.Trigger_L2_to_L1D |        3571      0.26%      0.26% |        3489      0.25%      0.51% |     1375961     99.30%     99.81% |        2582      0.19%    100.00%
system.ruby.L1Cache_Controller.M.Trigger_L2_to_L1D::total      1385603                      
system.ruby.L1Cache_Controller.M.Trigger_L2_to_L1I |        3516     32.35%     32.35% |         314      2.89%     35.24% |        5088     46.81%     82.05% |        1951     17.95%    100.00%
system.ruby.L1Cache_Controller.M.Trigger_L2_to_L1I::total        10869                      
system.ruby.L1Cache_Controller.M.Other_GETX |        1294     22.85%     22.85% |         740     13.07%     35.92% |        1842     32.53%     68.44% |        1787     31.56%    100.00%
system.ruby.L1Cache_Controller.M.Other_GETX::total         5663                      
system.ruby.L1Cache_Controller.M.Other_GETS |        6463     22.98%     22.98% |        9227     32.81%     55.80% |        8364     29.75%     85.54% |        4065     14.46%    100.00%
system.ruby.L1Cache_Controller.M.Other_GETS::total        28119                      
system.ruby.L1Cache_Controller.M.Merged_GETS |           5      4.35%      4.35% |          45     39.13%     43.48% |          22     19.13%     62.61% |          43     37.39%    100.00%
system.ruby.L1Cache_Controller.M.Merged_GETS::total          115                      
system.ruby.L1Cache_Controller.MM.Load   |     2122615      3.48%      3.48% |      414230      0.68%      4.16% |    57831198     94.88%     99.04% |      584849      0.96%    100.00%
system.ruby.L1Cache_Controller.MM.Load::total     60952892                      
system.ruby.L1Cache_Controller.MM.Store  |     2065772      3.60%      3.60% |      456688      0.80%      4.40% |    54140841     94.40%     98.80% |      688262      1.20%    100.00%
system.ruby.L1Cache_Controller.MM.Store::total     57351563                      
system.ruby.L1Cache_Controller.MM.L2_Replacement |        4281      0.14%      0.14% |          50      0.00%      0.14% |     3081728     99.85%     99.99% |         406      0.01%    100.00%
system.ruby.L1Cache_Controller.MM.L2_Replacement::total      3086465                      
system.ruby.L1Cache_Controller.MM.L1_to_L2 |      132619      1.28%      1.28% |       25418      0.25%      1.53% |    10163456     98.13%     99.66% |       35357      0.34%    100.00%
system.ruby.L1Cache_Controller.MM.L1_to_L2::total     10356850                      
system.ruby.L1Cache_Controller.MM.Trigger_L2_to_L1D |       85732      1.20%      1.20% |        9976      0.14%      1.34% |     7053948     98.50%     99.83% |       11830      0.17%    100.00%
system.ruby.L1Cache_Controller.MM.Trigger_L2_to_L1D::total      7161486                      
system.ruby.L1Cache_Controller.MM.Other_GETX |       10101     38.92%     38.92% |        1717      6.62%     45.53% |       11974     46.13%     91.67% |        2163      8.33%    100.00%
system.ruby.L1Cache_Controller.MM.Other_GETX::total        25955                      
system.ruby.L1Cache_Controller.MM.Other_GETS |       14611     38.05%     38.05% |        3509      9.14%     47.18% |       15694     40.87%     88.05% |        4589     11.95%    100.00%
system.ruby.L1Cache_Controller.MM.Other_GETS::total        38403                      
system.ruby.L1Cache_Controller.MM.Merged_GETS |          21      5.17%      5.17% |         149     36.70%     41.87% |          99     24.38%     66.26% |         137     33.74%    100.00%
system.ruby.L1Cache_Controller.MM.Merged_GETS::total          406                      
system.ruby.L1Cache_Controller.SR.Load   |       26216     34.54%     34.54% |        3146      4.14%     38.68% |       37310     49.15%     87.83% |        9239     12.17%    100.00%
system.ruby.L1Cache_Controller.SR.Load::total        75911                      
system.ruby.L1Cache_Controller.SR.Ifetch |       32265     27.27%     27.27% |       21669     18.31%     45.58% |       20765     17.55%     63.14% |       43617     36.86%    100.00%
system.ruby.L1Cache_Controller.SR.Ifetch::total       118316                      
system.ruby.L1Cache_Controller.SR.Store  |        1728     59.79%     59.79% |         342     11.83%     71.63% |         311     10.76%     82.39% |         509     17.61%    100.00%
system.ruby.L1Cache_Controller.SR.Store::total         2890                      
system.ruby.L1Cache_Controller.OR.Load   |       14035     52.99%     52.99% |        2626      9.92%     62.91% |        8178     30.88%     93.79% |        1645      6.21%    100.00%
system.ruby.L1Cache_Controller.OR.Load::total        26484                      
system.ruby.L1Cache_Controller.OR.Ifetch |       10078     33.34%     33.34% |        9305     30.78%     64.12% |       10046     33.23%     97.35% |         801      2.65%    100.00%
system.ruby.L1Cache_Controller.OR.Ifetch::total        30230                      
system.ruby.L1Cache_Controller.OR.Store  |         402     70.65%     70.65% |         132     23.20%     93.85% |           4      0.70%     94.55% |          31      5.45%    100.00%
system.ruby.L1Cache_Controller.OR.Store::total          569                      
system.ruby.L1Cache_Controller.MR.Load   |        2443      0.18%      0.18% |        3061      0.22%      0.40% |     1375651     99.47%     99.87% |        1850      0.13%    100.00%
system.ruby.L1Cache_Controller.MR.Load::total      1383005                      
system.ruby.L1Cache_Controller.MR.Ifetch |        3516     32.35%     32.35% |         314      2.89%     35.24% |        5088     46.81%     82.05% |        1951     17.95%    100.00%
system.ruby.L1Cache_Controller.MR.Ifetch::total        10869                      
system.ruby.L1Cache_Controller.MR.Store  |        1128     43.42%     43.42% |         428     16.47%     59.89% |         310     11.93%     71.82% |         732     28.18%    100.00%
system.ruby.L1Cache_Controller.MR.Store::total         2598                      
system.ruby.L1Cache_Controller.MMR.Load  |       48088      0.81%      0.81% |        3563      0.06%      0.87% |     5882439     99.02%     99.89% |        6523      0.11%    100.00%
system.ruby.L1Cache_Controller.MMR.Load::total      5940613                      
system.ruby.L1Cache_Controller.MMR.Store |       37644      3.08%      3.08% |        6413      0.53%      3.61% |     1171509     95.96%     99.57% |        5307      0.43%    100.00%
system.ruby.L1Cache_Controller.MMR.Store::total      1220873                      
system.ruby.L1Cache_Controller.IM.Other_GETX |           0      0.00%      0.00% |           1    100.00%    100.00% |           0      0.00%    100.00% |           0      0.00%    100.00%
system.ruby.L1Cache_Controller.IM.Other_GETX::total            1                      
system.ruby.L1Cache_Controller.IM.Ack    |       49652      0.80%      0.80% |       27546      0.44%      1.24% |     6113445     98.39%     99.63% |       22963      0.37%    100.00%
system.ruby.L1Cache_Controller.IM.Ack::total      6213606                      
system.ruby.L1Cache_Controller.IM.Data   |        1334     30.11%     30.11% |         570     12.87%     42.98% |        1348     30.43%     73.41% |        1178     26.59%    100.00%
system.ruby.L1Cache_Controller.IM.Data::total         4430                      
system.ruby.L1Cache_Controller.IM.Exclusive_Data |       23901      1.14%      1.14% |       12983      0.62%      1.76% |     2040738     97.57%     99.33% |       13964      0.67%    100.00%
system.ruby.L1Cache_Controller.IM.Exclusive_Data::total      2091586                      
system.ruby.L1Cache_Controller.SM.Other_GETX |           1    100.00%    100.00% |           0      0.00%    100.00% |           0      0.00%    100.00% |           0      0.00%    100.00%
system.ruby.L1Cache_Controller.SM.Other_GETX::total            1                      
system.ruby.L1Cache_Controller.SM.Ack    |        8362     57.64%     57.64% |        1440      9.93%     67.56% |        2505     17.27%     84.83% |        2201     15.17%    100.00%
system.ruby.L1Cache_Controller.SM.Ack::total        14508                      
system.ruby.L1Cache_Controller.SM.Data   |        9133     56.65%     56.65% |        1189      7.38%     64.03% |        3222     19.99%     84.01% |        2577     15.99%    100.00%
system.ruby.L1Cache_Controller.SM.Data::total        16121                      
system.ruby.L1Cache_Controller.OM.Ack    |       10404     86.35%     86.35% |         762      6.32%     92.68% |         120      1.00%     93.68% |         762      6.32%    100.00%
system.ruby.L1Cache_Controller.OM.Ack::total        12048                      
system.ruby.L1Cache_Controller.OM.All_acks_no_sharers |        3468     86.35%     86.35% |         254      6.32%     92.68% |          40      1.00%     93.68% |         254      6.32%    100.00%
system.ruby.L1Cache_Controller.OM.All_acks_no_sharers::total         4016                      
system.ruby.L1Cache_Controller.ISM.Ack   |       12039     51.60%     51.60% |        1242      5.32%     56.93% |        5646     24.20%     81.13% |        4403     18.87%    100.00%
system.ruby.L1Cache_Controller.ISM.Ack::total        23330                      
system.ruby.L1Cache_Controller.ISM.All_acks_no_sharers |       10467     50.93%     50.93% |        1759      8.56%     59.49% |        4570     22.24%     81.73% |        3755     18.27%    100.00%
system.ruby.L1Cache_Controller.ISM.All_acks_no_sharers::total        20551                      
system.ruby.L1Cache_Controller.M_W.Load  |           3     33.33%     33.33% |           0      0.00%     33.33% |           1     11.11%     44.44% |           5     55.56%    100.00%
system.ruby.L1Cache_Controller.M_W.Load::total            9                      
system.ruby.L1Cache_Controller.M_W.Ack   |       16104     39.42%     39.42% |       10576     25.89%     65.31% |        7948     19.46%     84.76% |        6224     15.24%    100.00%
system.ruby.L1Cache_Controller.M_W.Ack::total        40852                      
system.ruby.L1Cache_Controller.M_W.All_acks_no_sharers |       27863      0.86%      0.86% |       17937      0.55%      1.41% |     3189470     98.01%     99.42% |       18922      0.58%    100.00%
system.ruby.L1Cache_Controller.M_W.All_acks_no_sharers::total      3254192                      
system.ruby.L1Cache_Controller.MM_W.Store |        6262     74.72%     74.72% |         813      9.70%     84.42% |         532      6.35%     90.76% |         774      9.24%    100.00%
system.ruby.L1Cache_Controller.MM_W.Store::total         8381                      
system.ruby.L1Cache_Controller.MM_W.Ack  |       11335     34.43%     34.43% |        6021     18.29%     52.72% |        5565     16.91%     69.63% |        9997     30.37%    100.00%
system.ruby.L1Cache_Controller.MM_W.Ack::total        32918                      
system.ruby.L1Cache_Controller.MM_W.All_acks_no_sharers |       23901      1.14%      1.14% |       12983      0.62%      1.76% |     2040738     97.57%     99.33% |       13964      0.67%    100.00%
system.ruby.L1Cache_Controller.MM_W.All_acks_no_sharers::total      2091586                      
system.ruby.L1Cache_Controller.IS.Other_GETS |           2     25.00%     25.00% |           3     37.50%     62.50% |           0      0.00%     62.50% |           3     37.50%    100.00%
system.ruby.L1Cache_Controller.IS.Other_GETS::total            8                      
system.ruby.L1Cache_Controller.IS.Ack    |       64524      0.66%      0.66% |       41474      0.43%      1.09% |     9578595     98.31%     99.40% |       58837      0.60%    100.00%
system.ruby.L1Cache_Controller.IS.Ack::total      9743430                      
system.ruby.L1Cache_Controller.IS.Shared_Ack |        3394      7.25%      7.25% |       17580     37.54%     44.79% |       12319     26.31%     71.10% |       13534     28.90%    100.00%
system.ruby.L1Cache_Controller.IS.Shared_Ack::total        46827                      
system.ruby.L1Cache_Controller.IS.Data   |         593      2.87%      2.87% |        6263     30.33%     33.20% |        7781     37.68%     70.88% |        6012     29.12%    100.00%
system.ruby.L1Cache_Controller.IS.Data::total        20649                      
system.ruby.L1Cache_Controller.IS.Shared_Data |       16733     33.10%     33.10% |        6437     12.73%     45.83% |       15656     30.97%     76.79% |       11732     23.21%    100.00%
system.ruby.L1Cache_Controller.IS.Shared_Data::total        50558                      
system.ruby.L1Cache_Controller.IS.Exclusive_Data |       27863      0.86%      0.86% |       17937      0.55%      1.41% |     3189470     98.01%     99.42% |       18922      0.58%    100.00%
system.ruby.L1Cache_Controller.IS.Exclusive_Data::total      3254192                      
system.ruby.L1Cache_Controller.SS.Load   |          23     44.23%     44.23% |           0      0.00%     44.23% |          15     28.85%     73.08% |          14     26.92%    100.00%
system.ruby.L1Cache_Controller.SS.Load::total           52                      
system.ruby.L1Cache_Controller.SS.Ifetch |         872     23.43%     23.43% |         550     14.78%     38.21% |        1116     29.98%     68.19% |        1184     31.81%    100.00%
system.ruby.L1Cache_Controller.SS.Ifetch::total         3722                      
system.ruby.L1Cache_Controller.SS.Ack    |       12964     30.11%     30.11% |        4809     11.17%     41.28% |       16063     37.31%     78.58% |        9222     21.42%    100.00%
system.ruby.L1Cache_Controller.SS.Ack::total        43058                      
system.ruby.L1Cache_Controller.SS.Shared_Ack |        4148     34.51%     34.51% |        1592     13.24%     47.75% |        1996     16.60%     64.35% |        4285     35.65%    100.00%
system.ruby.L1Cache_Controller.SS.Shared_Ack::total        12021                      
system.ruby.L1Cache_Controller.SS.All_acks |       17182     24.20%     24.20% |       12672     17.85%     42.04% |       23408     32.97%     75.01% |       17744     24.99%    100.00%
system.ruby.L1Cache_Controller.SS.All_acks::total        71006                      
system.ruby.L1Cache_Controller.SS.All_acks_no_sharers |         144     71.64%     71.64% |          28     13.93%     85.57% |          29     14.43%    100.00% |           0      0.00%    100.00%
system.ruby.L1Cache_Controller.SS.All_acks_no_sharers::total          201                      
system.ruby.L1Cache_Controller.OI.Load   |           5     71.43%     71.43% |           0      0.00%     71.43% |           2     28.57%    100.00% |           0      0.00%    100.00%
system.ruby.L1Cache_Controller.OI.Load::total            7                      
system.ruby.L1Cache_Controller.OI.Ifetch |           2    100.00%    100.00% |           0      0.00%    100.00% |           0      0.00%    100.00% |           0      0.00%    100.00%
system.ruby.L1Cache_Controller.OI.Ifetch::total            2                      
system.ruby.L1Cache_Controller.OI.Store  |           5    100.00%    100.00% |           0      0.00%    100.00% |           0      0.00%    100.00% |           0      0.00%    100.00%
system.ruby.L1Cache_Controller.OI.Store::total            5                      
system.ruby.L1Cache_Controller.OI.Writeback_Ack |         675      9.00%      9.00% |          13      0.17%      9.17% |        6706     89.37%     98.53% |         110      1.47%    100.00%
system.ruby.L1Cache_Controller.OI.Writeback_Ack::total         7504                      
system.ruby.L1Cache_Controller.MI.Load   |           5      2.96%      2.96% |           0      0.00%      2.96% |         164     97.04%    100.00% |           0      0.00%    100.00%
system.ruby.L1Cache_Controller.MI.Load::total          169                      
system.ruby.L1Cache_Controller.MI.Store  |          10      0.75%      0.75% |           0      0.00%      0.75% |        1316     99.25%    100.00% |           0      0.00%    100.00%
system.ruby.L1Cache_Controller.MI.Store::total         1326                      
system.ruby.L1Cache_Controller.MI.Writeback_Ack |        5078      0.10%      0.10% |          69      0.00%      0.10% |     5183495     99.89%     99.99% |         530      0.01%    100.00%
system.ruby.L1Cache_Controller.MI.Writeback_Ack::total      5189172                      
system.ruby.L1Cache_Controller.ST.Load   |           0      0.00%      0.00% |           1     50.00%     50.00% |           1     50.00%    100.00% |           0      0.00%    100.00%
system.ruby.L1Cache_Controller.ST.Load::total            2                      
system.ruby.L1Cache_Controller.ST.Complete_L2_to_L1 |       60209     30.54%     30.54% |       25157     12.76%     43.31% |       58386     29.62%     72.93% |       53365     27.07%    100.00%
system.ruby.L1Cache_Controller.ST.Complete_L2_to_L1::total       197117                      
system.ruby.L1Cache_Controller.OT.Complete_L2_to_L1 |       24515     42.80%     42.80% |       12063     21.06%     63.85% |       18228     31.82%     95.68% |        2477      4.32%    100.00%
system.ruby.L1Cache_Controller.OT.Complete_L2_to_L1::total        57283                      
system.ruby.L1Cache_Controller.MT.Load   |           0      0.00%      0.00% |           0      0.00%      0.00% |           1    100.00%    100.00% |           0      0.00%    100.00%
system.ruby.L1Cache_Controller.MT.Load::total            1                      
system.ruby.L1Cache_Controller.MT.Complete_L2_to_L1 |        7087      0.51%      0.51% |        3803      0.27%      0.78% |     1381049     98.90%     99.68% |        4533      0.32%    100.00%
system.ruby.L1Cache_Controller.MT.Complete_L2_to_L1::total      1396472                      
system.ruby.L1Cache_Controller.MMT.Complete_L2_to_L1 |       85732      1.20%      1.20% |        9976      0.14%      1.34% |     7053948     98.50%     99.83% |       11830      0.17%    100.00%
system.ruby.L1Cache_Controller.MMT.Complete_L2_to_L1::total      7161486                      

---------- End Simulation Statistics   ----------
