
---------- Begin Simulation Statistics ----------
sim_seconds                                  0.463294                       # Number of seconds simulated
sim_ticks                                463293994000                       # Number of ticks simulated
final_tick                               52484766115001                       # Number of ticks from beginning of simulation (restored from checkpoints and never reset)
sim_freq                                 1000000000000                       # Frequency of simulated ticks
host_inst_rate                                 147737                       # Simulator instruction rate (inst/s)
host_op_rate                                   266633                       # Simulator op (including micro ops) rate (op/s)
host_tick_rate                              254590572                       # Simulator tick rate (ticks/s)
host_mem_usage                                1812460                       # Number of bytes of host memory used
host_seconds                                  1819.76                       # Real time elapsed on the host
sim_insts                                   268846714                       # Number of instructions simulated
sim_ops                                     485209010                       # Number of ops (including micro ops) simulated
system.voltage_domain.voltage                       1                       # Voltage in Volts
system.clk_domain.clock                          1000                       # Clock period in ticks
system.mem_ctrls.bytes_read::ruby.dir_cntrl0       881280                       # Number of bytes read from this memory
system.mem_ctrls.bytes_read::total             881280                       # Number of bytes read from this memory
system.mem_ctrls.bytes_written::ruby.dir_cntrl0       470784                       # Number of bytes written to this memory
system.mem_ctrls.bytes_written::total          470784                       # Number of bytes written to this memory
system.mem_ctrls.num_reads::ruby.dir_cntrl0        13770                       # Number of read requests responded to by this memory
system.mem_ctrls.num_reads::total               13770                       # Number of read requests responded to by this memory
system.mem_ctrls.num_writes::ruby.dir_cntrl0         7356                       # Number of write requests responded to by this memory
system.mem_ctrls.num_writes::total               7356                       # Number of write requests responded to by this memory
system.mem_ctrls.bw_read::ruby.dir_cntrl0      1902205                       # Total read bandwidth from this memory (bytes/s)
system.mem_ctrls.bw_read::total               1902205                       # Total read bandwidth from this memory (bytes/s)
system.mem_ctrls.bw_write::ruby.dir_cntrl0      1016167                       # Write bandwidth from this memory (bytes/s)
system.mem_ctrls.bw_write::total              1016167                       # Write bandwidth from this memory (bytes/s)
system.mem_ctrls.bw_total::ruby.dir_cntrl0      2918372                       # Total bandwidth to/from this memory (bytes/s)
system.mem_ctrls.bw_total::total              2918372                       # Total bandwidth to/from this memory (bytes/s)
system.mem_ctrls.readReqs                       13770                       # Number of read requests accepted
system.mem_ctrls.writeReqs                       7356                       # Number of write requests accepted
system.mem_ctrls.readBursts                     13770                       # Number of DRAM read bursts, including those serviced by the write queue
system.mem_ctrls.writeBursts                     7356                       # Number of DRAM write bursts, including those merged in the write queue
system.mem_ctrls.bytesReadDRAM                 878208                       # Total number of bytes read from DRAM
system.mem_ctrls.bytesReadWrQ                    3072                       # Total number of bytes read from write queue
system.mem_ctrls.bytesWritten                  471680                       # Total number of bytes written to DRAM
system.mem_ctrls.bytesReadSys                  881280                       # Total read bytes from the system interface side
system.mem_ctrls.bytesWrittenSys               470784                       # Total written bytes from the system interface side
system.mem_ctrls.servicedByWrQ                     48                       # Number of DRAM read bursts serviced by the write queue
system.mem_ctrls.mergedWrBursts                     0                       # Number of DRAM write bursts merged with an existing one
system.mem_ctrls.neitherReadNorWriteReqs            0                       # Number of requests that are neither read nor write
system.mem_ctrls.perBankRdBursts::0               787                       # Per bank write bursts
system.mem_ctrls.perBankRdBursts::1               751                       # Per bank write bursts
system.mem_ctrls.perBankRdBursts::2               640                       # Per bank write bursts
system.mem_ctrls.perBankRdBursts::3               560                       # Per bank write bursts
system.mem_ctrls.perBankRdBursts::4               918                       # Per bank write bursts
system.mem_ctrls.perBankRdBursts::5              1671                       # Per bank write bursts
system.mem_ctrls.perBankRdBursts::6              1118                       # Per bank write bursts
system.mem_ctrls.perBankRdBursts::7              1138                       # Per bank write bursts
system.mem_ctrls.perBankRdBursts::8               926                       # Per bank write bursts
system.mem_ctrls.perBankRdBursts::9              1007                       # Per bank write bursts
system.mem_ctrls.perBankRdBursts::10              313                       # Per bank write bursts
system.mem_ctrls.perBankRdBursts::11              330                       # Per bank write bursts
system.mem_ctrls.perBankRdBursts::12              684                       # Per bank write bursts
system.mem_ctrls.perBankRdBursts::13             1258                       # Per bank write bursts
system.mem_ctrls.perBankRdBursts::14              976                       # Per bank write bursts
system.mem_ctrls.perBankRdBursts::15              645                       # Per bank write bursts
system.mem_ctrls.perBankWrBursts::0               428                       # Per bank write bursts
system.mem_ctrls.perBankWrBursts::1               627                       # Per bank write bursts
system.mem_ctrls.perBankWrBursts::2               272                       # Per bank write bursts
system.mem_ctrls.perBankWrBursts::3               227                       # Per bank write bursts
system.mem_ctrls.perBankWrBursts::4               267                       # Per bank write bursts
system.mem_ctrls.perBankWrBursts::5               809                       # Per bank write bursts
system.mem_ctrls.perBankWrBursts::6               507                       # Per bank write bursts
system.mem_ctrls.perBankWrBursts::7               644                       # Per bank write bursts
system.mem_ctrls.perBankWrBursts::8               530                       # Per bank write bursts
system.mem_ctrls.perBankWrBursts::9               627                       # Per bank write bursts
system.mem_ctrls.perBankWrBursts::10              135                       # Per bank write bursts
system.mem_ctrls.perBankWrBursts::11              139                       # Per bank write bursts
system.mem_ctrls.perBankWrBursts::12              451                       # Per bank write bursts
system.mem_ctrls.perBankWrBursts::13              546                       # Per bank write bursts
system.mem_ctrls.perBankWrBursts::14              697                       # Per bank write bursts
system.mem_ctrls.perBankWrBursts::15              464                       # Per bank write bursts
system.mem_ctrls.numRdRetry                         0                       # Number of times read queue was full causing retry
system.mem_ctrls.numWrRetry                         0                       # Number of times write queue was full causing retry
system.mem_ctrls.totGap                  463293909500                       # Total gap between requests
system.mem_ctrls.readPktSize::0                     0                       # Read request sizes (log2)
system.mem_ctrls.readPktSize::1                     0                       # Read request sizes (log2)
system.mem_ctrls.readPktSize::2                     0                       # Read request sizes (log2)
system.mem_ctrls.readPktSize::3                     0                       # Read request sizes (log2)
system.mem_ctrls.readPktSize::4                     0                       # Read request sizes (log2)
system.mem_ctrls.readPktSize::5                     0                       # Read request sizes (log2)
system.mem_ctrls.readPktSize::6                 13770                       # Read request sizes (log2)
system.mem_ctrls.writePktSize::0                    0                       # Write request sizes (log2)
system.mem_ctrls.writePktSize::1                    0                       # Write request sizes (log2)
system.mem_ctrls.writePktSize::2                    0                       # Write request sizes (log2)
system.mem_ctrls.writePktSize::3                    0                       # Write request sizes (log2)
system.mem_ctrls.writePktSize::4                    0                       # Write request sizes (log2)
system.mem_ctrls.writePktSize::5                    0                       # Write request sizes (log2)
system.mem_ctrls.writePktSize::6                 7356                       # Write request sizes (log2)
system.mem_ctrls.rdQLenPdf::0                   13293                       # What read queue length does an incoming req see
system.mem_ctrls.rdQLenPdf::1                     395                       # What read queue length does an incoming req see
system.mem_ctrls.rdQLenPdf::2                      34                       # What read queue length does an incoming req see
system.mem_ctrls.rdQLenPdf::3                       0                       # What read queue length does an incoming req see
system.mem_ctrls.rdQLenPdf::4                       0                       # What read queue length does an incoming req see
system.mem_ctrls.rdQLenPdf::5                       0                       # What read queue length does an incoming req see
system.mem_ctrls.rdQLenPdf::6                       0                       # What read queue length does an incoming req see
system.mem_ctrls.rdQLenPdf::7                       0                       # What read queue length does an incoming req see
system.mem_ctrls.rdQLenPdf::8                       0                       # What read queue length does an incoming req see
system.mem_ctrls.rdQLenPdf::9                       0                       # What read queue length does an incoming req see
system.mem_ctrls.rdQLenPdf::10                      0                       # What read queue length does an incoming req see
system.mem_ctrls.rdQLenPdf::11                      0                       # What read queue length does an incoming req see
system.mem_ctrls.rdQLenPdf::12                      0                       # What read queue length does an incoming req see
system.mem_ctrls.rdQLenPdf::13                      0                       # What read queue length does an incoming req see
system.mem_ctrls.rdQLenPdf::14                      0                       # What read queue length does an incoming req see
system.mem_ctrls.rdQLenPdf::15                      0                       # What read queue length does an incoming req see
system.mem_ctrls.rdQLenPdf::16                      0                       # What read queue length does an incoming req see
system.mem_ctrls.rdQLenPdf::17                      0                       # What read queue length does an incoming req see
system.mem_ctrls.rdQLenPdf::18                      0                       # What read queue length does an incoming req see
system.mem_ctrls.rdQLenPdf::19                      0                       # What read queue length does an incoming req see
system.mem_ctrls.rdQLenPdf::20                      0                       # What read queue length does an incoming req see
system.mem_ctrls.rdQLenPdf::21                      0                       # What read queue length does an incoming req see
system.mem_ctrls.rdQLenPdf::22                      0                       # What read queue length does an incoming req see
system.mem_ctrls.rdQLenPdf::23                      0                       # What read queue length does an incoming req see
system.mem_ctrls.rdQLenPdf::24                      0                       # What read queue length does an incoming req see
system.mem_ctrls.rdQLenPdf::25                      0                       # What read queue length does an incoming req see
system.mem_ctrls.rdQLenPdf::26                      0                       # What read queue length does an incoming req see
system.mem_ctrls.rdQLenPdf::27                      0                       # What read queue length does an incoming req see
system.mem_ctrls.rdQLenPdf::28                      0                       # What read queue length does an incoming req see
system.mem_ctrls.rdQLenPdf::29                      0                       # What read queue length does an incoming req see
system.mem_ctrls.rdQLenPdf::30                      0                       # What read queue length does an incoming req see
system.mem_ctrls.rdQLenPdf::31                      0                       # What read queue length does an incoming req see
system.mem_ctrls.wrQLenPdf::0                       0                       # What write queue length does an incoming req see
system.mem_ctrls.wrQLenPdf::1                       0                       # What write queue length does an incoming req see
system.mem_ctrls.wrQLenPdf::2                       0                       # What write queue length does an incoming req see
system.mem_ctrls.wrQLenPdf::3                       0                       # What write queue length does an incoming req see
system.mem_ctrls.wrQLenPdf::4                       0                       # What write queue length does an incoming req see
system.mem_ctrls.wrQLenPdf::5                       0                       # What write queue length does an incoming req see
system.mem_ctrls.wrQLenPdf::6                       0                       # What write queue length does an incoming req see
system.mem_ctrls.wrQLenPdf::7                       0                       # What write queue length does an incoming req see
system.mem_ctrls.wrQLenPdf::8                       0                       # What write queue length does an incoming req see
system.mem_ctrls.wrQLenPdf::9                       0                       # What write queue length does an incoming req see
system.mem_ctrls.wrQLenPdf::10                      0                       # What write queue length does an incoming req see
system.mem_ctrls.wrQLenPdf::11                      0                       # What write queue length does an incoming req see
system.mem_ctrls.wrQLenPdf::12                      0                       # What write queue length does an incoming req see
system.mem_ctrls.wrQLenPdf::13                      0                       # What write queue length does an incoming req see
system.mem_ctrls.wrQLenPdf::14                      0                       # What write queue length does an incoming req see
system.mem_ctrls.wrQLenPdf::15                     99                       # What write queue length does an incoming req see
system.mem_ctrls.wrQLenPdf::16                    136                       # What write queue length does an incoming req see
system.mem_ctrls.wrQLenPdf::17                    416                       # What write queue length does an incoming req see
system.mem_ctrls.wrQLenPdf::18                    452                       # What write queue length does an incoming req see
system.mem_ctrls.wrQLenPdf::19                    438                       # What write queue length does an incoming req see
system.mem_ctrls.wrQLenPdf::20                    474                       # What write queue length does an incoming req see
system.mem_ctrls.wrQLenPdf::21                    470                       # What write queue length does an incoming req see
system.mem_ctrls.wrQLenPdf::22                    439                       # What write queue length does an incoming req see
system.mem_ctrls.wrQLenPdf::23                    471                       # What write queue length does an incoming req see
system.mem_ctrls.wrQLenPdf::24                    465                       # What write queue length does an incoming req see
system.mem_ctrls.wrQLenPdf::25                    433                       # What write queue length does an incoming req see
system.mem_ctrls.wrQLenPdf::26                    441                       # What write queue length does an incoming req see
system.mem_ctrls.wrQLenPdf::27                    439                       # What write queue length does an incoming req see
system.mem_ctrls.wrQLenPdf::28                    448                       # What write queue length does an incoming req see
system.mem_ctrls.wrQLenPdf::29                    424                       # What write queue length does an incoming req see
system.mem_ctrls.wrQLenPdf::30                    427                       # What write queue length does an incoming req see
system.mem_ctrls.wrQLenPdf::31                    430                       # What write queue length does an incoming req see
system.mem_ctrls.wrQLenPdf::32                    420                       # What write queue length does an incoming req see
system.mem_ctrls.wrQLenPdf::33                      7                       # What write queue length does an incoming req see
system.mem_ctrls.wrQLenPdf::34                      4                       # What write queue length does an incoming req see
system.mem_ctrls.wrQLenPdf::35                      4                       # What write queue length does an incoming req see
system.mem_ctrls.wrQLenPdf::36                      4                       # What write queue length does an incoming req see
system.mem_ctrls.wrQLenPdf::37                      6                       # What write queue length does an incoming req see
system.mem_ctrls.wrQLenPdf::38                      4                       # What write queue length does an incoming req see
system.mem_ctrls.wrQLenPdf::39                      3                       # What write queue length does an incoming req see
system.mem_ctrls.wrQLenPdf::40                      1                       # What write queue length does an incoming req see
system.mem_ctrls.wrQLenPdf::41                      1                       # What write queue length does an incoming req see
system.mem_ctrls.wrQLenPdf::42                      0                       # What write queue length does an incoming req see
system.mem_ctrls.wrQLenPdf::43                      0                       # What write queue length does an incoming req see
system.mem_ctrls.wrQLenPdf::44                      0                       # What write queue length does an incoming req see
system.mem_ctrls.wrQLenPdf::45                      0                       # What write queue length does an incoming req see
system.mem_ctrls.wrQLenPdf::46                      0                       # What write queue length does an incoming req see
system.mem_ctrls.wrQLenPdf::47                      0                       # What write queue length does an incoming req see
system.mem_ctrls.wrQLenPdf::48                      0                       # What write queue length does an incoming req see
system.mem_ctrls.wrQLenPdf::49                      0                       # What write queue length does an incoming req see
system.mem_ctrls.wrQLenPdf::50                      0                       # What write queue length does an incoming req see
system.mem_ctrls.wrQLenPdf::51                      0                       # What write queue length does an incoming req see
system.mem_ctrls.wrQLenPdf::52                      0                       # What write queue length does an incoming req see
system.mem_ctrls.wrQLenPdf::53                      0                       # What write queue length does an incoming req see
system.mem_ctrls.wrQLenPdf::54                      0                       # What write queue length does an incoming req see
system.mem_ctrls.wrQLenPdf::55                      0                       # What write queue length does an incoming req see
system.mem_ctrls.wrQLenPdf::56                      0                       # What write queue length does an incoming req see
system.mem_ctrls.wrQLenPdf::57                      0                       # What write queue length does an incoming req see
system.mem_ctrls.wrQLenPdf::58                      0                       # What write queue length does an incoming req see
system.mem_ctrls.wrQLenPdf::59                      0                       # What write queue length does an incoming req see
system.mem_ctrls.wrQLenPdf::60                      0                       # What write queue length does an incoming req see
system.mem_ctrls.wrQLenPdf::61                      0                       # What write queue length does an incoming req see
system.mem_ctrls.wrQLenPdf::62                      0                       # What write queue length does an incoming req see
system.mem_ctrls.wrQLenPdf::63                      0                       # What write queue length does an incoming req see
system.mem_ctrls.bytesPerActivate::samples         8109                       # Bytes accessed per row activation
system.mem_ctrls.bytesPerActivate::mean    166.531015                       # Bytes accessed per row activation
system.mem_ctrls.bytesPerActivate::gmean   112.564294                       # Bytes accessed per row activation
system.mem_ctrls.bytesPerActivate::stdev   210.949517                       # Bytes accessed per row activation
system.mem_ctrls.bytesPerActivate::0-127         4286     52.85%     52.85% # Bytes accessed per row activation
system.mem_ctrls.bytesPerActivate::128-255         2552     31.47%     84.33% # Bytes accessed per row activation
system.mem_ctrls.bytesPerActivate::256-383          479      5.91%     90.23% # Bytes accessed per row activation
system.mem_ctrls.bytesPerActivate::384-511          220      2.71%     92.95% # Bytes accessed per row activation
system.mem_ctrls.bytesPerActivate::512-639          122      1.50%     94.45% # Bytes accessed per row activation
system.mem_ctrls.bytesPerActivate::640-767           70      0.86%     95.31% # Bytes accessed per row activation
system.mem_ctrls.bytesPerActivate::768-895           42      0.52%     95.83% # Bytes accessed per row activation
system.mem_ctrls.bytesPerActivate::896-1023           49      0.60%     96.44% # Bytes accessed per row activation
system.mem_ctrls.bytesPerActivate::1024-1151          289      3.56%    100.00% # Bytes accessed per row activation
system.mem_ctrls.bytesPerActivate::total         8109                       # Bytes accessed per row activation
system.mem_ctrls.rdPerTurnAround::samples          418                       # Reads before turning the bus around for writes
system.mem_ctrls.rdPerTurnAround::mean      32.877990                       # Reads before turning the bus around for writes
system.mem_ctrls.rdPerTurnAround::stdev     22.749853                       # Reads before turning the bus around for writes
system.mem_ctrls.rdPerTurnAround::0-7              92     22.01%     22.01% # Reads before turning the bus around for writes
system.mem_ctrls.rdPerTurnAround::8-15              2      0.48%     22.49% # Reads before turning the bus around for writes
system.mem_ctrls.rdPerTurnAround::16-23            17      4.07%     26.56% # Reads before turning the bus around for writes
system.mem_ctrls.rdPerTurnAround::24-31            78     18.66%     45.22% # Reads before turning the bus around for writes
system.mem_ctrls.rdPerTurnAround::32-39            72     17.22%     62.44% # Reads before turning the bus around for writes
system.mem_ctrls.rdPerTurnAround::40-47            71     16.99%     79.43% # Reads before turning the bus around for writes
system.mem_ctrls.rdPerTurnAround::48-55            30      7.18%     86.60% # Reads before turning the bus around for writes
system.mem_ctrls.rdPerTurnAround::56-63            27      6.46%     93.06% # Reads before turning the bus around for writes
system.mem_ctrls.rdPerTurnAround::64-71             9      2.15%     95.22% # Reads before turning the bus around for writes
system.mem_ctrls.rdPerTurnAround::72-79             8      1.91%     97.13% # Reads before turning the bus around for writes
system.mem_ctrls.rdPerTurnAround::80-87             5      1.20%     98.33% # Reads before turning the bus around for writes
system.mem_ctrls.rdPerTurnAround::88-95             1      0.24%     98.56% # Reads before turning the bus around for writes
system.mem_ctrls.rdPerTurnAround::96-103            3      0.72%     99.28% # Reads before turning the bus around for writes
system.mem_ctrls.rdPerTurnAround::104-111            2      0.48%     99.76% # Reads before turning the bus around for writes
system.mem_ctrls.rdPerTurnAround::128-135            1      0.24%    100.00% # Reads before turning the bus around for writes
system.mem_ctrls.rdPerTurnAround::total           418                       # Reads before turning the bus around for writes
system.mem_ctrls.wrPerTurnAround::samples          418                       # Writes before turning the bus around for reads
system.mem_ctrls.wrPerTurnAround::mean      17.631579                       # Writes before turning the bus around for reads
system.mem_ctrls.wrPerTurnAround::gmean     17.369676                       # Writes before turning the bus around for reads
system.mem_ctrls.wrPerTurnAround::stdev      3.457610                       # Writes before turning the bus around for reads
system.mem_ctrls.wrPerTurnAround::16              309     73.92%     73.92% # Writes before turning the bus around for reads
system.mem_ctrls.wrPerTurnAround::17                5      1.20%     75.12% # Writes before turning the bus around for reads
system.mem_ctrls.wrPerTurnAround::18               24      5.74%     80.86% # Writes before turning the bus around for reads
system.mem_ctrls.wrPerTurnAround::19                1      0.24%     81.10% # Writes before turning the bus around for reads
system.mem_ctrls.wrPerTurnAround::21               25      5.98%     87.08% # Writes before turning the bus around for reads
system.mem_ctrls.wrPerTurnAround::22                6      1.44%     88.52% # Writes before turning the bus around for reads
system.mem_ctrls.wrPerTurnAround::23                5      1.20%     89.71% # Writes before turning the bus around for reads
system.mem_ctrls.wrPerTurnAround::24               26      6.22%     95.93% # Writes before turning the bus around for reads
system.mem_ctrls.wrPerTurnAround::25                4      0.96%     96.89% # Writes before turning the bus around for reads
system.mem_ctrls.wrPerTurnAround::27                1      0.24%     97.13% # Writes before turning the bus around for reads
system.mem_ctrls.wrPerTurnAround::28                9      2.15%     99.28% # Writes before turning the bus around for reads
system.mem_ctrls.wrPerTurnAround::38                2      0.48%     99.76% # Writes before turning the bus around for reads
system.mem_ctrls.wrPerTurnAround::39                1      0.24%    100.00% # Writes before turning the bus around for reads
system.mem_ctrls.wrPerTurnAround::total           418                       # Writes before turning the bus around for reads
system.mem_ctrls.totQLat                    180695983                       # Total ticks spent queuing
system.mem_ctrls.totMemAccLat               437983483                       # Total ticks spent from burst creation until serviced by the DRAM
system.mem_ctrls.totBusLat                   68610000                       # Total ticks spent in databus transfers
system.mem_ctrls.avgQLat                     13168.34                       # Average queueing delay per DRAM burst
system.mem_ctrls.avgBusLat                    5000.00                       # Average bus latency per DRAM burst
system.mem_ctrls.avgMemAccLat                31918.34                       # Average memory access latency per DRAM burst
system.mem_ctrls.avgRdBW                         1.90                       # Average DRAM read bandwidth in MiByte/s
system.mem_ctrls.avgWrBW                         1.02                       # Average achieved write bandwidth in MiByte/s
system.mem_ctrls.avgRdBWSys                      1.90                       # Average system read bandwidth in MiByte/s
system.mem_ctrls.avgWrBWSys                      1.02                       # Average system write bandwidth in MiByte/s
system.mem_ctrls.peakBW                      12800.00                       # Theoretical peak bandwidth in MiByte/s
system.mem_ctrls.busUtil                         0.02                       # Data bus utilization in percentage
system.mem_ctrls.busUtilRead                     0.01                       # Data bus utilization in percentage for reads
system.mem_ctrls.busUtilWrite                    0.01                       # Data bus utilization in percentage for writes
system.mem_ctrls.avgRdQLen                       1.00                       # Average read queue length when enqueuing
system.mem_ctrls.avgWrQLen                      23.74                       # Average write queue length when enqueuing
system.mem_ctrls.readRowHits                     8633                       # Number of row buffer hits during reads
system.mem_ctrls.writeRowHits                    4353                       # Number of row buffer hits during writes
system.mem_ctrls.readRowHitRate                 62.91                       # Row buffer hit rate for reads
system.mem_ctrls.writeRowHitRate                59.18                       # Row buffer hit rate for writes
system.mem_ctrls.avgGap                   21930034.53                       # Average gap between requests
system.mem_ctrls.pageHitRate                    61.61                       # Row buffer hit rate, read and write combined
system.mem_ctrls_0.actEnergy                 55384560                       # Energy for activate commands per rank (pJ)
system.mem_ctrls_0.preEnergy                 30219750                       # Energy for precharge commands per rank (pJ)
system.mem_ctrls_0.readEnergy               128902800                       # Energy for read commands per rank (pJ)
system.mem_ctrls_0.writeEnergy               28518480                       # Energy for write commands per rank (pJ)
system.mem_ctrls_0.refreshEnergy          30482069280                       # Energy for refresh commands per rank (pJ)
system.mem_ctrls_0.actBackEnergy          13995070920                       # Energy for active background per rank (pJ)
system.mem_ctrls_0.preBackEnergy         267739129500                       # Energy for precharge background per rank (pJ)
system.mem_ctrls_0.totalEnergy           312459295290                       # Total energy per rank (pJ)
system.mem_ctrls_0.averagePower            669.518552                       # Core power per rank (mW)
system.mem_ctrls_0.memoryStateTime::IDLE 444389228750                       # Time in different power states
system.mem_ctrls_0.memoryStateTime::REF   15470260000                       # Time in different power states
system.mem_ctrls_0.memoryStateTime::PRE_PDN            0                       # Time in different power states
system.mem_ctrls_0.memoryStateTime::ACT    3437546500                       # Time in different power states
system.mem_ctrls_0.memoryStateTime::ACT_PDN            0                       # Time in different power states
system.mem_ctrls_1.actEnergy                 42010920                       # Energy for activate commands per rank (pJ)
system.mem_ctrls_1.preEnergy                 22922625                       # Energy for precharge commands per rank (pJ)
system.mem_ctrls_1.readEnergy               101985000                       # Energy for read commands per rank (pJ)
system.mem_ctrls_1.writeEnergy               25252560                       # Energy for write commands per rank (pJ)
system.mem_ctrls_1.refreshEnergy          30482069280                       # Energy for refresh commands per rank (pJ)
system.mem_ctrls_1.actBackEnergy          14048687115                       # Energy for active background per rank (pJ)
system.mem_ctrls_1.preBackEnergy         267692097750                       # Energy for precharge background per rank (pJ)
system.mem_ctrls_1.totalEnergy           312415025250                       # Total energy per rank (pJ)
system.mem_ctrls_1.averagePower            669.423693                       # Core power per rank (mW)
system.mem_ctrls_1.memoryStateTime::IDLE 444215151750                       # Time in different power states
system.mem_ctrls_1.memoryStateTime::REF   15470260000                       # Time in different power states
system.mem_ctrls_1.memoryStateTime::PRE_PDN            0                       # Time in different power states
system.mem_ctrls_1.memoryStateTime::ACT    3610857000                       # Time in different power states
system.mem_ctrls_1.memoryStateTime::ACT_PDN            0                       # Time in different power states
system.cpu_voltage_domain.voltage                   1                       # Voltage in Volts
system.cpu_clk_domain.clock                       500                       # Clock period in ticks
system.cpu0.apic_clk_domain.clock                8000                       # Clock period in ticks
system.cpu0.numCycles                       924593690                       # number of cpu cycles simulated
system.cpu0.numWorkItemsStarted                     0                       # number of work items this cpu started
system.cpu0.numWorkItemsCompleted                   0                       # number of work items this cpu completed
system.cpu0.kern.inst.arm                           0                       # number of arm instructions executed
system.cpu0.kern.inst.quiesce                       0                       # number of quiesce instructions executed
system.cpu0.committedInsts                    1061841                       # Number of instructions committed
system.cpu0.committedOps                      2075173                       # Number of ops (including micro ops) committed
system.cpu0.num_int_alu_accesses              2043168                       # Number of integer alu accesses
system.cpu0.num_fp_alu_accesses                  1778                       # Number of float alu accesses
system.cpu0.num_func_calls                      46038                       # number of times a function call or return occured
system.cpu0.num_conditional_control_insts       163684                       # number of instructions that are conditional controls
system.cpu0.num_int_insts                     2043168                       # number of integer instructions
system.cpu0.num_fp_insts                         1778                       # number of float instructions
system.cpu0.num_int_register_reads            4155702                       # number of times the integer registers were read
system.cpu0.num_int_register_writes           1664749                       # number of times the integer registers were written
system.cpu0.num_fp_register_reads                2988                       # number of times the floating registers were read
system.cpu0.num_fp_register_writes               1416                       # number of times the floating registers were written
system.cpu0.num_cc_register_reads             1179084                       # number of times the CC registers were read
system.cpu0.num_cc_register_writes             691090                       # number of times the CC registers were written
system.cpu0.num_mem_refs                       474197                       # number of memory refs
system.cpu0.num_load_insts                     291477                       # Number of load instructions
system.cpu0.num_store_insts                    182720                       # Number of store instructions
system.cpu0.num_idle_cycles              919727880.287327                       # Number of idle cycles
system.cpu0.num_busy_cycles              4865809.712673                       # Number of busy cycles
system.cpu0.not_idle_fraction                0.005263                       # Percentage of non-idle cycles
system.cpu0.idle_fraction                    0.994737                       # Percentage of idle cycles
system.cpu0.Branches                           226450                       # Number of branches fetched
system.cpu0.op_class::No_OpClass                20925      1.01%      1.01% # Class of executed instruction
system.cpu0.op_class::IntAlu                  1570355     75.67%     76.68% # Class of executed instruction
system.cpu0.op_class::IntMult                    2479      0.12%     76.80% # Class of executed instruction
system.cpu0.op_class::IntDiv                     5963      0.29%     77.09% # Class of executed instruction
system.cpu0.op_class::FloatAdd                   1344      0.06%     77.15% # Class of executed instruction
system.cpu0.op_class::FloatCmp                      0      0.00%     77.15% # Class of executed instruction
system.cpu0.op_class::FloatCvt                      0      0.00%     77.15% # Class of executed instruction
system.cpu0.op_class::FloatMult                     0      0.00%     77.15% # Class of executed instruction
system.cpu0.op_class::FloatDiv                      0      0.00%     77.15% # Class of executed instruction
system.cpu0.op_class::FloatSqrt                     0      0.00%     77.15% # Class of executed instruction
system.cpu0.op_class::SimdAdd                       0      0.00%     77.15% # Class of executed instruction
system.cpu0.op_class::SimdAddAcc                    0      0.00%     77.15% # Class of executed instruction
system.cpu0.op_class::SimdAlu                       0      0.00%     77.15% # Class of executed instruction
system.cpu0.op_class::SimdCmp                       0      0.00%     77.15% # Class of executed instruction
system.cpu0.op_class::SimdCvt                       0      0.00%     77.15% # Class of executed instruction
system.cpu0.op_class::SimdMisc                      0      0.00%     77.15% # Class of executed instruction
system.cpu0.op_class::SimdMult                      0      0.00%     77.15% # Class of executed instruction
system.cpu0.op_class::SimdMultAcc                   0      0.00%     77.15% # Class of executed instruction
system.cpu0.op_class::SimdShift                     0      0.00%     77.15% # Class of executed instruction
system.cpu0.op_class::SimdShiftAcc                  0      0.00%     77.15% # Class of executed instruction
system.cpu0.op_class::SimdSqrt                      0      0.00%     77.15% # Class of executed instruction
system.cpu0.op_class::SimdFloatAdd                  0      0.00%     77.15% # Class of executed instruction
system.cpu0.op_class::SimdFloatAlu                  0      0.00%     77.15% # Class of executed instruction
system.cpu0.op_class::SimdFloatCmp                  0      0.00%     77.15% # Class of executed instruction
system.cpu0.op_class::SimdFloatCvt                  0      0.00%     77.15% # Class of executed instruction
system.cpu0.op_class::SimdFloatDiv                  0      0.00%     77.15% # Class of executed instruction
system.cpu0.op_class::SimdFloatMisc                 0      0.00%     77.15% # Class of executed instruction
system.cpu0.op_class::SimdFloatMult                 0      0.00%     77.15% # Class of executed instruction
system.cpu0.op_class::SimdFloatMultAcc              0      0.00%     77.15% # Class of executed instruction
system.cpu0.op_class::SimdFloatSqrt                 0      0.00%     77.15% # Class of executed instruction
system.cpu0.op_class::MemRead                  291477     14.05%     91.20% # Class of executed instruction
system.cpu0.op_class::MemWrite                 182720      8.80%    100.00% # Class of executed instruction
system.cpu0.op_class::IprAccess                     0      0.00%    100.00% # Class of executed instruction
system.cpu0.op_class::InstPrefetch                  0      0.00%    100.00% # Class of executed instruction
system.cpu0.op_class::total                   2075263                       # Class of executed instruction
system.cpu1.apic_clk_domain.clock                8000                       # Clock period in ticks
system.cpu1.numCycles                       928028662                       # number of cpu cycles simulated
system.cpu1.numWorkItemsStarted                     0                       # number of work items this cpu started
system.cpu1.numWorkItemsCompleted                   0                       # number of work items this cpu completed
system.cpu1.kern.inst.arm                           0                       # number of arm instructions executed
system.cpu1.kern.inst.quiesce                       0                       # number of quiesce instructions executed
system.cpu1.committedInsts                     402045                       # Number of instructions committed
system.cpu1.committedOps                       842595                       # Number of ops (including micro ops) committed
system.cpu1.num_int_alu_accesses               825844                       # Number of integer alu accesses
system.cpu1.num_fp_alu_accesses                   387                       # Number of float alu accesses
system.cpu1.num_func_calls                      22573                       # number of times a function call or return occured
system.cpu1.num_conditional_control_insts        61150                       # number of instructions that are conditional controls
system.cpu1.num_int_insts                      825844                       # number of integer instructions
system.cpu1.num_fp_insts                          387                       # number of float instructions
system.cpu1.num_int_register_reads            1670167                       # number of times the integer registers were read
system.cpu1.num_int_register_writes            678227                       # number of times the integer registers were written
system.cpu1.num_fp_register_reads                 622                       # number of times the floating registers were read
system.cpu1.num_fp_register_writes                354                       # number of times the floating registers were written
system.cpu1.num_cc_register_reads              472924                       # number of times the CC registers were read
system.cpu1.num_cc_register_writes             257152                       # number of times the CC registers were written
system.cpu1.num_mem_refs                       199440                       # number of memory refs
system.cpu1.num_load_insts                     122903                       # Number of load instructions
system.cpu1.num_store_insts                     76537                       # Number of store instructions
system.cpu1.num_idle_cycles              926202437.967279                       # Number of idle cycles
system.cpu1.num_busy_cycles              1826224.032721                       # Number of busy cycles
system.cpu1.not_idle_fraction                0.001968                       # Percentage of non-idle cycles
system.cpu1.idle_fraction                    0.998032                       # Percentage of idle cycles
system.cpu1.Branches                            91162                       # Number of branches fetched
system.cpu1.op_class::No_OpClass                12640      1.50%      1.50% # Class of executed instruction
system.cpu1.op_class::IntAlu                   624535     74.12%     75.62% # Class of executed instruction
system.cpu1.op_class::IntMult                    1641      0.19%     75.81% # Class of executed instruction
system.cpu1.op_class::IntDiv                     4123      0.49%     76.30% # Class of executed instruction
system.cpu1.op_class::FloatAdd                    239      0.03%     76.33% # Class of executed instruction
system.cpu1.op_class::FloatCmp                      0      0.00%     76.33% # Class of executed instruction
system.cpu1.op_class::FloatCvt                      0      0.00%     76.33% # Class of executed instruction
system.cpu1.op_class::FloatMult                     0      0.00%     76.33% # Class of executed instruction
system.cpu1.op_class::FloatDiv                      0      0.00%     76.33% # Class of executed instruction
system.cpu1.op_class::FloatSqrt                     0      0.00%     76.33% # Class of executed instruction
system.cpu1.op_class::SimdAdd                       0      0.00%     76.33% # Class of executed instruction
system.cpu1.op_class::SimdAddAcc                    0      0.00%     76.33% # Class of executed instruction
system.cpu1.op_class::SimdAlu                       0      0.00%     76.33% # Class of executed instruction
system.cpu1.op_class::SimdCmp                       0      0.00%     76.33% # Class of executed instruction
system.cpu1.op_class::SimdCvt                       0      0.00%     76.33% # Class of executed instruction
system.cpu1.op_class::SimdMisc                      0      0.00%     76.33% # Class of executed instruction
system.cpu1.op_class::SimdMult                      0      0.00%     76.33% # Class of executed instruction
system.cpu1.op_class::SimdMultAcc                   0      0.00%     76.33% # Class of executed instruction
system.cpu1.op_class::SimdShift                     0      0.00%     76.33% # Class of executed instruction
system.cpu1.op_class::SimdShiftAcc                  0      0.00%     76.33% # Class of executed instruction
system.cpu1.op_class::SimdSqrt                      0      0.00%     76.33% # Class of executed instruction
system.cpu1.op_class::SimdFloatAdd                  0      0.00%     76.33% # Class of executed instruction
system.cpu1.op_class::SimdFloatAlu                  0      0.00%     76.33% # Class of executed instruction
system.cpu1.op_class::SimdFloatCmp                  0      0.00%     76.33% # Class of executed instruction
system.cpu1.op_class::SimdFloatCvt                  0      0.00%     76.33% # Class of executed instruction
system.cpu1.op_class::SimdFloatDiv                  0      0.00%     76.33% # Class of executed instruction
system.cpu1.op_class::SimdFloatMisc                 0      0.00%     76.33% # Class of executed instruction
system.cpu1.op_class::SimdFloatMult                 0      0.00%     76.33% # Class of executed instruction
system.cpu1.op_class::SimdFloatMultAcc              0      0.00%     76.33% # Class of executed instruction
system.cpu1.op_class::SimdFloatSqrt                 0      0.00%     76.33% # Class of executed instruction
system.cpu1.op_class::MemRead                  122903     14.59%     90.92% # Class of executed instruction
system.cpu1.op_class::MemWrite                  76537      9.08%    100.00% # Class of executed instruction
system.cpu1.op_class::IprAccess                     0      0.00%    100.00% # Class of executed instruction
system.cpu1.op_class::InstPrefetch                  0      0.00%    100.00% # Class of executed instruction
system.cpu1.op_class::total                    842618                       # Class of executed instruction
system.cpu2.apic_clk_domain.clock                8000                       # Clock period in ticks
system.cpu2.numCycles                       928136287                       # number of cpu cycles simulated
system.cpu2.numWorkItemsStarted                     0                       # number of work items this cpu started
system.cpu2.numWorkItemsCompleted                   0                       # number of work items this cpu completed
system.cpu2.kern.inst.arm                           0                       # number of arm instructions executed
system.cpu2.kern.inst.quiesce                       0                       # number of quiesce instructions executed
system.cpu2.committedInsts                  265736804                       # Number of instructions committed
system.cpu2.committedOps                    479169705                       # Number of ops (including micro ops) committed
system.cpu2.num_int_alu_accesses            269541745                       # Number of integer alu accesses
system.cpu2.num_fp_alu_accesses             270602519                       # Number of float alu accesses
system.cpu2.num_func_calls                    9864366                       # number of times a function call or return occured
system.cpu2.num_conditional_control_insts     14997804                       # number of instructions that are conditional controls
system.cpu2.num_int_insts                   269541745                       # number of integer instructions
system.cpu2.num_fp_insts                    270602519                       # number of float instructions
system.cpu2.num_int_register_reads          512490878                       # number of times the integer registers were read
system.cpu2.num_int_register_writes         176045838                       # number of times the integer registers were written
system.cpu2.num_fp_register_reads           446698678                       # number of times the floating registers were read
system.cpu2.num_fp_register_writes          249457043                       # number of times the floating registers were written
system.cpu2.num_cc_register_reads           106894817                       # number of times the CC registers were read
system.cpu2.num_cc_register_writes           82962836                       # number of times the CC registers were written
system.cpu2.num_mem_refs                     84021218                       # number of memory refs
system.cpu2.num_load_insts                   62865389                       # Number of load instructions
system.cpu2.num_store_insts                  21155829                       # Number of store instructions
system.cpu2.num_idle_cycles              4030597.765215                       # Number of idle cycles
system.cpu2.num_busy_cycles              924105689.234785                       # Number of busy cycles
system.cpu2.not_idle_fraction                0.995657                       # Percentage of non-idle cycles
system.cpu2.idle_fraction                    0.004343                       # Percentage of idle cycles
system.cpu2.Branches                         27045464                       # Number of branches fetched
system.cpu2.op_class::No_OpClass                10682      0.00%      0.00% # Class of executed instruction
system.cpu2.op_class::IntAlu                244765790     51.08%     51.08% # Class of executed instruction
system.cpu2.op_class::IntMult                    2405      0.00%     51.08% # Class of executed instruction
system.cpu2.op_class::IntDiv                     1785      0.00%     51.08% # Class of executed instruction
system.cpu2.op_class::FloatAdd              150367922     31.38%     82.47% # Class of executed instruction
system.cpu2.op_class::FloatCmp                      0      0.00%     82.47% # Class of executed instruction
system.cpu2.op_class::FloatCvt                      0      0.00%     82.47% # Class of executed instruction
system.cpu2.op_class::FloatMult                     0      0.00%     82.47% # Class of executed instruction
system.cpu2.op_class::FloatDiv                      0      0.00%     82.47% # Class of executed instruction
system.cpu2.op_class::FloatSqrt                     0      0.00%     82.47% # Class of executed instruction
system.cpu2.op_class::SimdAdd                       0      0.00%     82.47% # Class of executed instruction
system.cpu2.op_class::SimdAddAcc                    0      0.00%     82.47% # Class of executed instruction
system.cpu2.op_class::SimdAlu                       0      0.00%     82.47% # Class of executed instruction
system.cpu2.op_class::SimdCmp                       0      0.00%     82.47% # Class of executed instruction
system.cpu2.op_class::SimdCvt                       0      0.00%     82.47% # Class of executed instruction
system.cpu2.op_class::SimdMisc                      0      0.00%     82.47% # Class of executed instruction
system.cpu2.op_class::SimdMult                      0      0.00%     82.47% # Class of executed instruction
system.cpu2.op_class::SimdMultAcc                   0      0.00%     82.47% # Class of executed instruction
system.cpu2.op_class::SimdShift                     0      0.00%     82.47% # Class of executed instruction
system.cpu2.op_class::SimdShiftAcc                  0      0.00%     82.47% # Class of executed instruction
system.cpu2.op_class::SimdSqrt                      0      0.00%     82.47% # Class of executed instruction
system.cpu2.op_class::SimdFloatAdd                  0      0.00%     82.47% # Class of executed instruction
system.cpu2.op_class::SimdFloatAlu                  0      0.00%     82.47% # Class of executed instruction
system.cpu2.op_class::SimdFloatCmp                  0      0.00%     82.47% # Class of executed instruction
system.cpu2.op_class::SimdFloatCvt                  0      0.00%     82.47% # Class of executed instruction
system.cpu2.op_class::SimdFloatDiv                  0      0.00%     82.47% # Class of executed instruction
system.cpu2.op_class::SimdFloatMisc                 0      0.00%     82.47% # Class of executed instruction
system.cpu2.op_class::SimdFloatMult                 0      0.00%     82.47% # Class of executed instruction
system.cpu2.op_class::SimdFloatMultAcc              0      0.00%     82.47% # Class of executed instruction
system.cpu2.op_class::SimdFloatSqrt                 0      0.00%     82.47% # Class of executed instruction
system.cpu2.op_class::MemRead                62865389     13.12%     95.58% # Class of executed instruction
system.cpu2.op_class::MemWrite               21155829      4.42%    100.00% # Class of executed instruction
system.cpu2.op_class::IprAccess                     0      0.00%    100.00% # Class of executed instruction
system.cpu2.op_class::InstPrefetch                  0      0.00%    100.00% # Class of executed instruction
system.cpu2.op_class::total                 479169802                       # Class of executed instruction
system.cpu3.apic_clk_domain.clock                8000                       # Clock period in ticks
system.cpu3.numCycles                       923527259                       # number of cpu cycles simulated
system.cpu3.numWorkItemsStarted                     0                       # number of work items this cpu started
system.cpu3.numWorkItemsCompleted                   0                       # number of work items this cpu completed
system.cpu3.kern.inst.arm                           0                       # number of arm instructions executed
system.cpu3.kern.inst.quiesce                       0                       # number of quiesce instructions executed
system.cpu3.committedInsts                     326286                       # Number of instructions committed
system.cpu3.committedOps                       693357                       # Number of ops (including micro ops) committed
system.cpu3.num_int_alu_accesses               680531                       # Number of integer alu accesses
system.cpu3.num_fp_alu_accesses                    33                       # Number of float alu accesses
system.cpu3.num_func_calls                      19419                       # number of times a function call or return occured
system.cpu3.num_conditional_control_insts        49230                       # number of instructions that are conditional controls
system.cpu3.num_int_insts                      680531                       # number of integer instructions
system.cpu3.num_fp_insts                           33                       # number of float instructions
system.cpu3.num_int_register_reads            1367850                       # number of times the integer registers were read
system.cpu3.num_int_register_writes            559101                       # number of times the integer registers were written
system.cpu3.num_fp_register_reads                  14                       # number of times the floating registers were read
system.cpu3.num_fp_register_writes                 25                       # number of times the floating registers were written
system.cpu3.num_cc_register_reads              381986                       # number of times the CC registers were read
system.cpu3.num_cc_register_writes             209344                       # number of times the CC registers were written
system.cpu3.num_mem_refs                       163498                       # number of memory refs
system.cpu3.num_load_insts                     101433                       # Number of load instructions
system.cpu3.num_store_insts                     62065                       # Number of store instructions
system.cpu3.num_idle_cycles              922004127.921723                       # Number of idle cycles
system.cpu3.num_busy_cycles              1523131.078277                       # Number of busy cycles
system.cpu3.not_idle_fraction                0.001649                       # Percentage of non-idle cycles
system.cpu3.idle_fraction                    0.998351                       # Percentage of idle cycles
system.cpu3.Branches                            74747                       # Number of branches fetched
system.cpu3.op_class::No_OpClass                 9637      1.39%      1.39% # Class of executed instruction
system.cpu3.op_class::IntAlu                   515604     74.36%     75.75% # Class of executed instruction
system.cpu3.op_class::IntMult                    1501      0.22%     75.97% # Class of executed instruction
system.cpu3.op_class::IntDiv                     3103      0.45%     76.42% # Class of executed instruction
system.cpu3.op_class::FloatAdd                     17      0.00%     76.42% # Class of executed instruction
system.cpu3.op_class::FloatCmp                      0      0.00%     76.42% # Class of executed instruction
system.cpu3.op_class::FloatCvt                      0      0.00%     76.42% # Class of executed instruction
system.cpu3.op_class::FloatMult                     0      0.00%     76.42% # Class of executed instruction
system.cpu3.op_class::FloatDiv                      0      0.00%     76.42% # Class of executed instruction
system.cpu3.op_class::FloatSqrt                     0      0.00%     76.42% # Class of executed instruction
system.cpu3.op_class::SimdAdd                       0      0.00%     76.42% # Class of executed instruction
system.cpu3.op_class::SimdAddAcc                    0      0.00%     76.42% # Class of executed instruction
system.cpu3.op_class::SimdAlu                       0      0.00%     76.42% # Class of executed instruction
system.cpu3.op_class::SimdCmp                       0      0.00%     76.42% # Class of executed instruction
system.cpu3.op_class::SimdCvt                       0      0.00%     76.42% # Class of executed instruction
system.cpu3.op_class::SimdMisc                      0      0.00%     76.42% # Class of executed instruction
system.cpu3.op_class::SimdMult                      0      0.00%     76.42% # Class of executed instruction
system.cpu3.op_class::SimdMultAcc                   0      0.00%     76.42% # Class of executed instruction
system.cpu3.op_class::SimdShift                     0      0.00%     76.42% # Class of executed instruction
system.cpu3.op_class::SimdShiftAcc                  0      0.00%     76.42% # Class of executed instruction
system.cpu3.op_class::SimdSqrt                      0      0.00%     76.42% # Class of executed instruction
system.cpu3.op_class::SimdFloatAdd                  0      0.00%     76.42% # Class of executed instruction
system.cpu3.op_class::SimdFloatAlu                  0      0.00%     76.42% # Class of executed instruction
system.cpu3.op_class::SimdFloatCmp                  0      0.00%     76.42% # Class of executed instruction
system.cpu3.op_class::SimdFloatCvt                  0      0.00%     76.42% # Class of executed instruction
system.cpu3.op_class::SimdFloatDiv                  0      0.00%     76.42% # Class of executed instruction
system.cpu3.op_class::SimdFloatMisc                 0      0.00%     76.42% # Class of executed instruction
system.cpu3.op_class::SimdFloatMult                 0      0.00%     76.42% # Class of executed instruction
system.cpu3.op_class::SimdFloatMultAcc              0      0.00%     76.42% # Class of executed instruction
system.cpu3.op_class::SimdFloatSqrt                 0      0.00%     76.42% # Class of executed instruction
system.cpu3.op_class::MemRead                  101433     14.63%     91.05% # Class of executed instruction
system.cpu3.op_class::MemWrite                  62065      8.95%    100.00% # Class of executed instruction
system.cpu3.op_class::IprAccess                     0      0.00%    100.00% # Class of executed instruction
system.cpu3.op_class::InstPrefetch                  0      0.00%    100.00% # Class of executed instruction
system.cpu3.op_class::total                    693360                       # Class of executed instruction
system.iobus.trans_dist::ReadReq                   96                       # Transaction distribution
system.iobus.trans_dist::ReadResp                  96                       # Transaction distribution
system.iobus.trans_dist::WriteReq                 558                       # Transaction distribution
system.iobus.trans_dist::WriteResp                558                       # Transaction distribution
system.iobus.trans_dist::MessageReq                16                       # Transaction distribution
system.iobus.trans_dist::MessageResp               16                       # Transaction distribution
system.iobus.pkt_count_system.pc.south_bridge.io_apic.int_master::system.ruby.l1_cntrl0.sequencer.pio-slave-port            2                       # Packet count per connected master and slave (bytes)
system.iobus.pkt_count_system.pc.south_bridge.io_apic.int_master::system.ruby.l1_cntrl1.sequencer.pio-slave-port            4                       # Packet count per connected master and slave (bytes)
system.iobus.pkt_count_system.pc.south_bridge.io_apic.int_master::system.ruby.l1_cntrl2.sequencer.pio-slave-port            2                       # Packet count per connected master and slave (bytes)
system.iobus.pkt_count_system.pc.south_bridge.io_apic.int_master::system.ruby.l1_cntrl3.sequencer.pio-slave-port            2                       # Packet count per connected master and slave (bytes)
system.iobus.pkt_count_system.pc.south_bridge.io_apic.int_master::total           10                       # Packet count per connected master and slave (bytes)
system.iobus.pkt_count_system.ruby.l1_cntrl0.sequencer.mem-master-port::system.pc.south_bridge.io_apic.pio            8                       # Packet count per connected master and slave (bytes)
system.iobus.pkt_count_system.ruby.l1_cntrl0.sequencer.mem-master-port::system.pc.com_1.pio            2                       # Packet count per connected master and slave (bytes)
system.iobus.pkt_count_system.ruby.l1_cntrl0.sequencer.mem-master-port::system.ruby.l1_cntrl0.sequencer.pio-slave-port          254                       # Packet count per connected master and slave (bytes)
system.iobus.pkt_count_system.ruby.l1_cntrl0.sequencer.mem-master-port::system.ruby.l1_cntrl1.sequencer.pio-slave-port            2                       # Packet count per connected master and slave (bytes)
system.iobus.pkt_count_system.ruby.l1_cntrl0.sequencer.mem-master-port::system.ruby.l1_cntrl2.sequencer.pio-slave-port            2                       # Packet count per connected master and slave (bytes)
system.iobus.pkt_count_system.ruby.l1_cntrl0.sequencer.mem-master-port::system.ruby.l1_cntrl3.sequencer.pio-slave-port            2                       # Packet count per connected master and slave (bytes)
system.iobus.pkt_count_system.ruby.l1_cntrl0.sequencer.mem-master-port::total          270                       # Packet count per connected master and slave (bytes)
system.iobus.pkt_count_system.ruby.l1_cntrl1.sequencer.mem-master-port::system.pc.south_bridge.ide.pio           46                       # Packet count per connected master and slave (bytes)
system.iobus.pkt_count_system.ruby.l1_cntrl1.sequencer.mem-master-port::system.pc.south_bridge.io_apic.pio            8                       # Packet count per connected master and slave (bytes)
system.iobus.pkt_count_system.ruby.l1_cntrl1.sequencer.mem-master-port::system.ruby.l1_cntrl1.sequencer.pio-slave-port          248                       # Packet count per connected master and slave (bytes)
system.iobus.pkt_count_system.ruby.l1_cntrl1.sequencer.mem-master-port::system.ruby.l1_cntrl2.sequencer.pio-slave-port            2                       # Packet count per connected master and slave (bytes)
system.iobus.pkt_count_system.ruby.l1_cntrl1.sequencer.mem-master-port::total          304                       # Packet count per connected master and slave (bytes)
system.iobus.pkt_count_system.ruby.l1_cntrl2.sequencer.mem-master-port::system.pc.south_bridge.ide.pio           12                       # Packet count per connected master and slave (bytes)
system.iobus.pkt_count_system.ruby.l1_cntrl2.sequencer.mem-master-port::system.ruby.l1_cntrl0.sequencer.pio-slave-port            2                       # Packet count per connected master and slave (bytes)
system.iobus.pkt_count_system.ruby.l1_cntrl2.sequencer.mem-master-port::system.ruby.l1_cntrl1.sequencer.pio-slave-port            4                       # Packet count per connected master and slave (bytes)
system.iobus.pkt_count_system.ruby.l1_cntrl2.sequencer.mem-master-port::system.ruby.l1_cntrl2.sequencer.pio-slave-port          268                       # Packet count per connected master and slave (bytes)
system.iobus.pkt_count_system.ruby.l1_cntrl2.sequencer.mem-master-port::system.ruby.l1_cntrl3.sequencer.pio-slave-port            6                       # Packet count per connected master and slave (bytes)
system.iobus.pkt_count_system.ruby.l1_cntrl2.sequencer.mem-master-port::total          292                       # Packet count per connected master and slave (bytes)
system.iobus.pkt_count_system.ruby.l1_cntrl3.sequencer.mem-master-port::system.pc.south_bridge.ide.pio           34                       # Packet count per connected master and slave (bytes)
system.iobus.pkt_count_system.ruby.l1_cntrl3.sequencer.mem-master-port::system.pc.south_bridge.io_apic.pio            6                       # Packet count per connected master and slave (bytes)
system.iobus.pkt_count_system.ruby.l1_cntrl3.sequencer.mem-master-port::system.pc.com_1.pio          174                       # Packet count per connected master and slave (bytes)
system.iobus.pkt_count_system.ruby.l1_cntrl3.sequencer.mem-master-port::system.ruby.l1_cntrl0.sequencer.pio-slave-port            2                       # Packet count per connected master and slave (bytes)
system.iobus.pkt_count_system.ruby.l1_cntrl3.sequencer.mem-master-port::system.ruby.l1_cntrl3.sequencer.pio-slave-port          248                       # Packet count per connected master and slave (bytes)
system.iobus.pkt_count_system.ruby.l1_cntrl3.sequencer.mem-master-port::total          464                       # Packet count per connected master and slave (bytes)
system.iobus.pkt_count::total                    1340                       # Packet count per connected master and slave (bytes)
system.iobus.pkt_size_system.pc.south_bridge.io_apic.int_master::system.ruby.l1_cntrl0.sequencer.pio-slave-port            4                       # Cumulative packet size per connected master and slave (bytes)
system.iobus.pkt_size_system.pc.south_bridge.io_apic.int_master::system.ruby.l1_cntrl1.sequencer.pio-slave-port            8                       # Cumulative packet size per connected master and slave (bytes)
system.iobus.pkt_size_system.pc.south_bridge.io_apic.int_master::system.ruby.l1_cntrl2.sequencer.pio-slave-port            4                       # Cumulative packet size per connected master and slave (bytes)
system.iobus.pkt_size_system.pc.south_bridge.io_apic.int_master::system.ruby.l1_cntrl3.sequencer.pio-slave-port            4                       # Cumulative packet size per connected master and slave (bytes)
system.iobus.pkt_size_system.pc.south_bridge.io_apic.int_master::total           20                       # Cumulative packet size per connected master and slave (bytes)
system.iobus.pkt_size_system.ruby.l1_cntrl0.sequencer.mem-master-port::system.pc.south_bridge.io_apic.pio           16                       # Cumulative packet size per connected master and slave (bytes)
system.iobus.pkt_size_system.ruby.l1_cntrl0.sequencer.mem-master-port::system.pc.com_1.pio            1                       # Cumulative packet size per connected master and slave (bytes)
system.iobus.pkt_size_system.ruby.l1_cntrl0.sequencer.mem-master-port::system.ruby.l1_cntrl0.sequencer.pio-slave-port          508                       # Cumulative packet size per connected master and slave (bytes)
system.iobus.pkt_size_system.ruby.l1_cntrl0.sequencer.mem-master-port::system.ruby.l1_cntrl1.sequencer.pio-slave-port            4                       # Cumulative packet size per connected master and slave (bytes)
system.iobus.pkt_size_system.ruby.l1_cntrl0.sequencer.mem-master-port::system.ruby.l1_cntrl2.sequencer.pio-slave-port            4                       # Cumulative packet size per connected master and slave (bytes)
system.iobus.pkt_size_system.ruby.l1_cntrl0.sequencer.mem-master-port::system.ruby.l1_cntrl3.sequencer.pio-slave-port            4                       # Cumulative packet size per connected master and slave (bytes)
system.iobus.pkt_size_system.ruby.l1_cntrl0.sequencer.mem-master-port::total          537                       # Cumulative packet size per connected master and slave (bytes)
system.iobus.pkt_size_system.ruby.l1_cntrl1.sequencer.mem-master-port::system.pc.south_bridge.ide.pio           26                       # Cumulative packet size per connected master and slave (bytes)
system.iobus.pkt_size_system.ruby.l1_cntrl1.sequencer.mem-master-port::system.pc.south_bridge.io_apic.pio           16                       # Cumulative packet size per connected master and slave (bytes)
system.iobus.pkt_size_system.ruby.l1_cntrl1.sequencer.mem-master-port::system.ruby.l1_cntrl1.sequencer.pio-slave-port          496                       # Cumulative packet size per connected master and slave (bytes)
system.iobus.pkt_size_system.ruby.l1_cntrl1.sequencer.mem-master-port::system.ruby.l1_cntrl2.sequencer.pio-slave-port            4                       # Cumulative packet size per connected master and slave (bytes)
system.iobus.pkt_size_system.ruby.l1_cntrl1.sequencer.mem-master-port::total          542                       # Cumulative packet size per connected master and slave (bytes)
system.iobus.pkt_size_system.ruby.l1_cntrl2.sequencer.mem-master-port::system.pc.south_bridge.ide.pio            6                       # Cumulative packet size per connected master and slave (bytes)
system.iobus.pkt_size_system.ruby.l1_cntrl2.sequencer.mem-master-port::system.ruby.l1_cntrl0.sequencer.pio-slave-port            4                       # Cumulative packet size per connected master and slave (bytes)
system.iobus.pkt_size_system.ruby.l1_cntrl2.sequencer.mem-master-port::system.ruby.l1_cntrl1.sequencer.pio-slave-port            8                       # Cumulative packet size per connected master and slave (bytes)
system.iobus.pkt_size_system.ruby.l1_cntrl2.sequencer.mem-master-port::system.ruby.l1_cntrl2.sequencer.pio-slave-port          536                       # Cumulative packet size per connected master and slave (bytes)
system.iobus.pkt_size_system.ruby.l1_cntrl2.sequencer.mem-master-port::system.ruby.l1_cntrl3.sequencer.pio-slave-port           12                       # Cumulative packet size per connected master and slave (bytes)
system.iobus.pkt_size_system.ruby.l1_cntrl2.sequencer.mem-master-port::total          566                       # Cumulative packet size per connected master and slave (bytes)
system.iobus.pkt_size_system.ruby.l1_cntrl3.sequencer.mem-master-port::system.pc.south_bridge.ide.pio           20                       # Cumulative packet size per connected master and slave (bytes)
system.iobus.pkt_size_system.ruby.l1_cntrl3.sequencer.mem-master-port::system.pc.south_bridge.io_apic.pio           12                       # Cumulative packet size per connected master and slave (bytes)
system.iobus.pkt_size_system.ruby.l1_cntrl3.sequencer.mem-master-port::system.pc.com_1.pio           87                       # Cumulative packet size per connected master and slave (bytes)
system.iobus.pkt_size_system.ruby.l1_cntrl3.sequencer.mem-master-port::system.ruby.l1_cntrl0.sequencer.pio-slave-port            4                       # Cumulative packet size per connected master and slave (bytes)
system.iobus.pkt_size_system.ruby.l1_cntrl3.sequencer.mem-master-port::system.ruby.l1_cntrl3.sequencer.pio-slave-port          496                       # Cumulative packet size per connected master and slave (bytes)
system.iobus.pkt_size_system.ruby.l1_cntrl3.sequencer.mem-master-port::total          619                       # Cumulative packet size per connected master and slave (bytes)
system.iobus.pkt_size::total                     2284                       # Cumulative packet size per connected master and slave (bytes)
system.iobus.reqLayer2.occupancy                79500                       # Layer occupancy (ticks)
system.iobus.reqLayer2.utilization                0.0                       # Layer utilization (%)
system.iobus.reqLayer8.occupancy                20497                       # Layer occupancy (ticks)
system.iobus.reqLayer8.utilization                0.0                       # Layer utilization (%)
system.iobus.reqLayer12.occupancy              113000                       # Layer occupancy (ticks)
system.iobus.reqLayer12.utilization               0.0                       # Layer utilization (%)
system.iobus.reqLayer17.occupancy              316998                       # Layer occupancy (ticks)
system.iobus.reqLayer17.utilization               0.0                       # Layer utilization (%)
system.iobus.reqLayer18.occupancy              316499                       # Layer occupancy (ticks)
system.iobus.reqLayer18.utilization               0.0                       # Layer utilization (%)
system.iobus.reqLayer19.occupancy              300995                       # Layer occupancy (ticks)
system.iobus.reqLayer19.utilization               0.0                       # Layer utilization (%)
system.iobus.reqLayer20.occupancy              319498                       # Layer occupancy (ticks)
system.iobus.reqLayer20.utilization               0.0                       # Layer utilization (%)
system.iobus.respLayer0.occupancy                7998                       # Layer occupancy (ticks)
system.iobus.respLayer0.utilization               0.0                       # Layer utilization (%)
system.iobus.respLayer2.occupancy              203500                       # Layer occupancy (ticks)
system.iobus.respLayer2.utilization               0.0                       # Layer utilization (%)
system.iobus.respLayer4.occupancy              225000                       # Layer occupancy (ticks)
system.iobus.respLayer4.utilization               0.0                       # Layer utilization (%)
system.iobus.respLayer6.occupancy              222000                       # Layer occupancy (ticks)
system.iobus.respLayer6.utilization               0.0                       # Layer utilization (%)
system.iobus.respLayer8.occupancy              365000                       # Layer occupancy (ticks)
system.iobus.respLayer8.utilization               0.0                       # Layer utilization (%)
system.pc.south_bridge.ide.disks.dma_read_full_pages            0                       # Number of full page size DMA reads (not PRD).
system.pc.south_bridge.ide.disks.dma_read_bytes            0                       # Number of bytes transfered via DMA reads (not PRD).
system.pc.south_bridge.ide.disks.dma_read_txs            0                       # Number of DMA read transactions (not PRD).
system.pc.south_bridge.ide.disks.dma_write_full_pages           33                       # Number of full page size DMA writes.
system.pc.south_bridge.ide.disks.dma_write_bytes       135168                       # Number of bytes transfered via DMA writes.
system.pc.south_bridge.ide.disks.dma_write_txs           33                       # Number of DMA write transactions.
system.ruby.clk_domain.clock                      500                       # Clock period in ticks
system.ruby.delayHist::bucket_size                  4                       # delay histogram for all message
system.ruby.delayHist::max_bucket                  39                       # delay histogram for all message
system.ruby.delayHist::samples                1339788                       # delay histogram for all message
system.ruby.delayHist::mean                  0.297902                       # delay histogram for all message
system.ruby.delayHist::stdev                 1.514055                       # delay histogram for all message
system.ruby.delayHist                    |     1290396     96.31%     96.31% |         393      0.03%     96.34% |       48874      3.65%     99.99% |          44      0.00%     99.99% |          69      0.01%    100.00% |           3      0.00%    100.00% |           6      0.00%    100.00% |           1      0.00%    100.00% |           2      0.00%    100.00% |           0      0.00%    100.00% # delay histogram for all message
system.ruby.delayHist::total                  1339788                       # delay histogram for all message
system.ruby.outstanding_req_hist_seqr::bucket_size            1                      
system.ruby.outstanding_req_hist_seqr::max_bucket            9                      
system.ruby.outstanding_req_hist_seqr::samples    462041597                      
system.ruby.outstanding_req_hist_seqr::mean     1.000000                      
system.ruby.outstanding_req_hist_seqr::gmean     1.000000                      
system.ruby.outstanding_req_hist_seqr::stdev     0.000653                      
system.ruby.outstanding_req_hist_seqr    |           0      0.00%      0.00% |   462041400    100.00%    100.00% |         197      0.00%    100.00% |           0      0.00%    100.00% |           0      0.00%    100.00% |           0      0.00%    100.00% |           0      0.00%    100.00% |           0      0.00%    100.00% |           0      0.00%    100.00% |           0      0.00%    100.00%
system.ruby.outstanding_req_hist_seqr::total    462041597                      
[...]
system.ruby.DMA_Controller.ReadRequest::total           35                      
system.ruby.DMA_Controller.WriteRequest  |        2240    100.00%    100.00% |           0      0.00%    100.00%
system.ruby.DMA_Controller.WriteRequest::total         2240                      
system.ruby.DMA_Controller.Data          |          35    100.00%    100.00% |           0      0.00%    100.00%
system.ruby.DMA_Controller.Data::total             35                      
system.ruby.DMA_Controller.Ack           |        2240    100.00%    100.00% |           0      0.00%    100.00%
system.ruby.DMA_Controller.Ack::total            2240                      
system.ruby.DMA_Controller.READY.ReadRequest |          35    100.00%    100.00% |           0      0.00%    100.00%
system.ruby.DMA_Controller.READY.ReadRequest::total           35                      
system.ruby.DMA_Controller.READY.WriteRequest |        2240    100.00%    100.00% |           0      0.00%    100.00%
system.ruby.DMA_Controller.READY.WriteRequest::total         2240                      
system.ruby.DMA_Controller.BUSY_RD.Data  |          35    100.00%    100.00% |           0      0.00%    100.00%
system.ruby.DMA_Controller.BUSY_RD.Data::total           35                      
system.ruby.DMA_Controller.BUSY_WR.Ack   |        2240    100.00%    100.00% |           0      0.00%    100.00%
system.ruby.DMA_Controller.BUSY_WR.Ack::total         2240                      
system.ruby.L1Cache_Controller.Load      |     3868768      5.69%      5.69% |      383679      0.56%      6.26% |    63004970     92.70%     98.96% |      707044      1.04%    100.00%
system.ruby.L1Cache_Controller.Load::total     67964461                      
system.ruby.L1Cache_Controller.Ifetch    |    21761699      5.40%      5.40% |     1846610      0.46%      5.86% |   375494174     93.16%     99.01% |     3974202      0.99%    100.00%
system.ruby.L1Cache_Controller.Ifetch::total    403076685                      
system.ruby.L1Cache_Controller.Store     |     2808730     11.26%     11.26% |      285840      1.15%     12.41% |    21276765     85.33%     97.74% |      563331      2.26%    100.00%
system.ruby.L1Cache_Controller.Store::total     24934666                      
system.ruby.L1Cache_Controller.Inv       |       12901     29.55%     29.55% |        8459     19.38%     48.93% |       10969     25.13%     74.05% |       11328     25.95%    100.00%
system.ruby.L1Cache_Controller.Inv::total        43657                      
system.ruby.L1Cache_Controller.L1_Replacement |      138639     27.40%     27.40% |       40022      7.91%     35.31% |      260116     51.41%     86.72% |       67196     13.28%    100.00%
system.ruby.L1Cache_Controller.L1_Replacement::total       505973                      
system.ruby.L1Cache_Controller.Fwd_GETX  |        1022     33.25%     33.25% |         646     21.01%     54.26% |         680     22.12%     76.38% |         726     23.62%    100.00%
system.ruby.L1Cache_Controller.Fwd_GETX::total         3074                      
system.ruby.L1Cache_Controller.Fwd_GETS  |        2677     35.33%     35.33% |        1828     24.13%     59.46% |        1618     21.35%     80.81% |        1454     19.19%    100.00%
system.ruby.L1Cache_Controller.Fwd_GETS::total         7577                      
system.ruby.L1Cache_Controller.Data      |         266     39.58%     39.58% |          72     10.71%     50.30% |         175     26.04%     76.34% |         159     23.66%    100.00%
system.ruby.L1Cache_Controller.Data::total          672                      
system.ruby.L1Cache_Controller.Data_Exclusive |       23938      9.81%      9.81% |       11696      4.79%     14.60% |      186865     76.54%     91.14% |       21627      8.86%    100.00%
system.ruby.L1Cache_Controller.Data_Exclusive::total       244126                      
system.ruby.L1Cache_Controller.DataS_fromL1 |        2352     31.04%     31.04% |        1727     22.79%     53.83% |        1303     17.20%     71.03% |        2195     28.97%    100.00%
system.ruby.L1Cache_Controller.DataS_fromL1::total         7577                      
system.ruby.L1Cache_Controller.Data_all_Acks |      112840     43.63%     43.63% |       28615     11.07%     54.70% |       72415     28.00%     82.70% |       44736     17.30%    100.00%
system.ruby.L1Cache_Controller.Data_all_Acks::total       258606                      
system.ruby.L1Cache_Controller.Ack       |        3625     43.43%     43.43% |        1381     16.54%     59.97% |        1587     19.01%     78.99% |        1754     21.01%    100.00%
system.ruby.L1Cache_Controller.Ack::total         8347                      
system.ruby.L1Cache_Controller.Ack_all   |        2340     38.38%     38.38% |        1189     19.50%     57.88% |        1191     19.53%     77.42% |        1377     22.58%    100.00%
system.ruby.L1Cache_Controller.Ack_all::total         6097                      
system.ruby.L1Cache_Controller.WB_Ack    |       40467     12.97%     12.97% |       17229      5.52%     18.49% |      223655     71.66%     90.14% |       30772      9.86%    100.00%
system.ruby.L1Cache_Controller.WB_Ack::total       312123                      
system.ruby.L1Cache_Controller.NP.Load   |       29535     10.87%     10.87% |       15190      5.59%     16.47% |      201141     74.05%     90.52% |       25764      9.48%    100.00%
system.ruby.L1Cache_Controller.NP.Load::total       271630                      
system.ruby.L1Cache_Controller.NP.Ifetch |       90522     57.39%     57.39% |       16588     10.52%     67.91% |       19903     12.62%     80.53% |       30705     19.47%    100.00%
system.ruby.L1Cache_Controller.NP.Ifetch::total       157718                      
system.ruby.L1Cache_Controller.NP.Store  |       18582     24.03%     24.03% |        8733     11.29%     35.32% |       39072     50.53%     85.85% |       10943     14.15%    100.00%
system.ruby.L1Cache_Controller.NP.Store::total        77330                      
system.ruby.L1Cache_Controller.NP.Inv    |        9379     33.70%     33.70% |        3829     13.76%     47.45% |        6885     24.74%     72.19% |        7740     27.81%    100.00%
system.ruby.L1Cache_Controller.NP.Inv::total        27833                      
system.ruby.L1Cache_Controller.I.Load    |         501     16.72%     16.72% |        1179     39.34%     56.06% |         304     10.14%     66.20% |        1013     33.80%    100.00%
system.ruby.L1Cache_Controller.I.Load::total         2997                      
system.ruby.L1Cache_Controller.I.Ifetch  |         111     20.59%     20.59% |         156     28.94%     49.54% |         135     25.05%     74.58% |         137     25.42%    100.00%
system.ruby.L1Cache_Controller.I.Ifetch::total          539                      
system.ruby.L1Cache_Controller.I.Store   |         145     18.93%     18.93% |         263     34.33%     53.26% |         203     26.50%     79.77% |         155     20.23%    100.00%
system.ruby.L1Cache_Controller.I.Store::total          766                      
system.ruby.L1Cache_Controller.I.L1_Replacement |        3433     24.79%     24.79% |        4034     29.13%     53.91% |        3510     25.34%     79.26% |        2873     20.74%    100.00%
system.ruby.L1Cache_Controller.I.L1_Replacement::total        13850                      
system.ruby.L1Cache_Controller.S.Load    |       91695      0.56%      0.56% |       53450      0.32%      0.88% |    16265245     98.70%     99.58% |       69248      0.42%    100.00%
system.ruby.L1Cache_Controller.S.Load::total     16479638                      
system.ruby.L1Cache_Controller.S.Ifetch  |    21671066      5.38%      5.38% |     1829866      0.45%      5.83% |   375474136     93.19%     99.02% |     3943357      0.98%    100.00%
system.ruby.L1Cache_Controller.S.Ifetch::total    402918425                      
system.ruby.L1Cache_Controller.S.Store   |        2074     38.22%     38.22% |        1118     20.60%     58.83% |        1016     18.72%     77.55% |        1218     22.45%    100.00%
system.ruby.L1Cache_Controller.S.Store::total         5426                      
system.ruby.L1Cache_Controller.S.Inv     |        2495     22.55%     22.55% |        3312     29.94%     52.49% |        2467     22.30%     74.79% |        2789     25.21%    100.00%
system.ruby.L1Cache_Controller.S.Inv::total        11063                      
system.ruby.L1Cache_Controller.S.L1_Replacement |       94739     52.63%     52.63% |       18759     10.42%     63.05% |       32951     18.31%     81.36% |       33551     18.64%    100.00%
system.ruby.L1Cache_Controller.S.L1_Replacement::total       180000                      
system.ruby.L1Cache_Controller.E.Load    |      395962      1.73%      1.73% |       84061      0.37%      2.10% |    22167415     97.08%     99.18% |      187163      0.82%    100.00%
system.ruby.L1Cache_Controller.E.Load::total     22834601                      
system.ruby.L1Cache_Controller.E.Store   |        6749     31.54%     31.54% |        2845     13.29%     44.83% |        3561     16.64%     61.47% |        8245     38.53%    100.00%
system.ruby.L1Cache_Controller.E.Store::total        21400                      
system.ruby.L1Cache_Controller.E.Inv     |         394     21.33%     21.33% |         490     26.53%     47.86% |         709     38.39%     86.25% |         254     13.75%    100.00%
system.ruby.L1Cache_Controller.E.Inv::total         1847                      
system.ruby.L1Cache_Controller.E.L1_Replacement |       15538      7.17%      7.17% |        7014      3.24%     10.41% |      181861     83.97%     94.38% |       12172      5.62%    100.00%
system.ruby.L1Cache_Controller.E.L1_Replacement::total       216585                      
system.ruby.L1Cache_Controller.E.Fwd_GETX |         662     48.32%     48.32% |         158     11.53%     59.85% |         139     10.15%     70.00% |         411     30.00%    100.00%
system.ruby.L1Cache_Controller.E.Fwd_GETX::total         1370                      
system.ruby.L1Cache_Controller.E.Fwd_GETS |         879     30.10%     30.10% |         804     27.53%     57.64% |         604     20.68%     78.32% |         633     21.68%    100.00%
system.ruby.L1Cache_Controller.E.Fwd_GETS::total         2920                      
system.ruby.L1Cache_Controller.M.Load    |     3351075     11.81%     11.81% |      229799      0.81%     12.62% |    24370865     85.89%     98.51% |      423856      1.49%    100.00%
system.ruby.L1Cache_Controller.M.Load::total     28375595                      
system.ruby.L1Cache_Controller.M.Store   |     2781180     11.20%     11.20% |      272881      1.10%     12.30% |    21232913     85.51%     97.81% |      542770      2.19%    100.00%
system.ruby.L1Cache_Controller.M.Store::total     24829744                      
system.ruby.L1Cache_Controller.M.Inv     |         633     21.73%     21.73% |         827     28.39%     50.12% |         908     31.17%     81.29% |         545     18.71%    100.00%
system.ruby.L1Cache_Controller.M.Inv::total         2913                      
system.ruby.L1Cache_Controller.M.L1_Replacement |       24929     26.09%     26.09% |       10215     10.69%     36.79% |       41794     43.75%     80.53% |       18600     19.47%    100.00%
system.ruby.L1Cache_Controller.M.L1_Replacement::total        95538                      
system.ruby.L1Cache_Controller.M.Fwd_GETX |         360     21.13%     21.13% |         488     28.64%     49.77% |         541     31.75%     81.51% |         315     18.49%    100.00%
system.ruby.L1Cache_Controller.M.Fwd_GETX::total         1704                      
system.ruby.L1Cache_Controller.M.Fwd_GETS |        1798     38.61%     38.61% |        1024     21.99%     60.60% |        1014     21.77%     82.37% |         821     17.63%    100.00%
system.ruby.L1Cache_Controller.M.Fwd_GETS::total         4657                      
system.ruby.L1Cache_Controller.IS.Data_Exclusive |       23938      9.81%      9.81% |       11696      4.79%     14.60% |      186865     76.54%     91.14% |       21627      8.86%    100.00%
system.ruby.L1Cache_Controller.IS.Data_Exclusive::total       244126                      
system.ruby.L1Cache_Controller.IS.DataS_fromL1 |        2352     31.04%     31.04% |        1727     22.79%     53.83% |        1303     17.20%     71.03% |        2195     28.97%    100.00%
system.ruby.L1Cache_Controller.IS.DataS_fromL1::total         7577                      
system.ruby.L1Cache_Controller.IS.Data_all_Acks |       94379     52.09%     52.09% |       19690     10.87%     62.96% |       33315     18.39%     81.35% |       33797     18.65%    100.00%
system.ruby.L1Cache_Controller.IS.Data_all_Acks::total       181181                      
system.ruby.L1Cache_Controller.IM.Data   |         266     39.58%     39.58% |          72     10.71%     50.30% |         175     26.04%     76.34% |         159     23.66%    100.00%
system.ruby.L1Cache_Controller.IM.Data::total          672                      
system.ruby.L1Cache_Controller.IM.Data_all_Acks |       18461     23.84%     23.84% |        8925     11.53%     35.37% |       39100     50.50%     85.87% |       10939     14.13%    100.00%
system.ruby.L1Cache_Controller.IM.Data_all_Acks::total        77425                      
system.ruby.L1Cache_Controller.SM.Inv    |           0      0.00%      0.00% |           1    100.00%    100.00% |           0      0.00%    100.00% |           0      0.00%    100.00%
system.ruby.L1Cache_Controller.SM.Inv::total            1                      
system.ruby.L1Cache_Controller.SM.Ack    |        3625     43.43%     43.43% |        1381     16.54%     59.97% |        1587     19.01%     78.99% |        1754     21.01%    100.00%
system.ruby.L1Cache_Controller.SM.Ack::total         8347                      
system.ruby.L1Cache_Controller.SM.Ack_all |        2340     38.38%     38.38% |        1189     19.50%     57.88% |        1191     19.53%     77.42% |        1377     22.58%    100.00%
system.ruby.L1Cache_Controller.SM.Ack_all::total         6097                      
system.ruby.L1Cache_Controller.M_I.Ifetch |           0      0.00%      0.00% |           0      0.00%      0.00% |           0      0.00%      0.00% |           3    100.00%    100.00%
system.ruby.L1Cache_Controller.M_I.Ifetch::total            3                      
system.ruby.L1Cache_Controller.M_I.WB_Ack |       40467     12.97%     12.97% |       17229      5.52%     18.49% |      223655     71.66%     90.14% |       30772      9.86%    100.00%
system.ruby.L1Cache_Controller.M_I.WB_Ack::total       312123                      
system.ruby.L2Cache_Controller.L1_GET_INSTR       158257      0.00%      0.00%
system.ruby.L2Cache_Controller.L1_GETS         274675      0.00%      0.00%
system.ruby.L2Cache_Controller.L1_GETX          78100      0.00%      0.00%
system.ruby.L2Cache_Controller.L1_UPGRADE         5426      0.00%      0.00%
system.ruby.L2Cache_Controller.L1_PUTX         312123      0.00%      0.00%
system.ruby.L2Cache_Controller.L2_Replacement        33401      0.00%      0.00%
system.ruby.L2Cache_Controller.L2_Replacement_clean        38107      0.00%      0.00%
system.ruby.L2Cache_Controller.Mem_Data         74237      0.00%      0.00%
system.ruby.L2Cache_Controller.Mem_Ack          71515      0.00%      0.00%
system.ruby.L2Cache_Controller.WB_Data           7570      0.00%      0.00%
system.ruby.L2Cache_Controller.WB_Data_clean         2920      0.00%      0.00%
system.ruby.L2Cache_Controller.Ack              12546      0.00%      0.00%
system.ruby.L2Cache_Controller.Ack_all          19179      0.00%      0.00%
system.ruby.L2Cache_Controller.Unblock           7577      0.00%      0.00%
system.ruby.L2Cache_Controller.Exclusive_Unblock       327648      0.00%      0.00%
system.ruby.L2Cache_Controller.MEM_Inv             14      0.00%      0.00%
system.ruby.L2Cache_Controller.NP.L1_GET_INSTR        16533      0.00%      0.00%
system.ruby.L2Cache_Controller.NP.L1_GETS        31582      0.00%      0.00%
system.ruby.L2Cache_Controller.NP.L1_GETX        26122      0.00%      0.00%
system.ruby.L2Cache_Controller.SS.L1_GET_INSTR       141704      0.00%      0.00%
system.ruby.L2Cache_Controller.SS.L1_GETS        22838      0.00%      0.00%
system.ruby.L2Cache_Controller.SS.L1_GETX          672      0.00%      0.00%
system.ruby.L2Cache_Controller.SS.L1_UPGRADE         5425      0.00%      0.00%
system.ruby.L2Cache_Controller.SS.L2_Replacement          524      0.00%      0.00%
system.ruby.L2Cache_Controller.SS.L2_Replacement_clean        16808      0.00%      0.00%
system.ruby.L2Cache_Controller.M.L1_GET_INSTR           19      0.00%      0.00%
system.ruby.L2Cache_Controller.M.L1_GETS       212587      0.00%      0.00%
system.ruby.L2Cache_Controller.M.L1_GETX        48229      0.00%      0.00%
system.ruby.L2Cache_Controller.M.L2_Replacement        31296      0.00%      0.00%
system.ruby.L2Cache_Controller.M.L2_Replacement_clean        18127      0.00%      0.00%
system.ruby.L2Cache_Controller.MT.L1_GETS         7577      0.00%      0.00%
system.ruby.L2Cache_Controller.MT.L1_GETX         3074      0.00%      0.00%
system.ruby.L2Cache_Controller.MT.L1_PUTX       312123      0.00%      0.00%
system.ruby.L2Cache_Controller.MT.L2_Replacement         1581      0.00%      0.00%
system.ruby.L2Cache_Controller.MT.L2_Replacement_clean         3172      0.00%      0.00%
system.ruby.L2Cache_Controller.MT.MEM_Inv            7      0.00%      0.00%
system.ruby.L2Cache_Controller.M_I.L1_GETS            1      0.00%      0.00%
system.ruby.L2Cache_Controller.M_I.Mem_Ack        71515      0.00%      0.00%
system.ruby.L2Cache_Controller.MT_I.WB_Data          992      0.00%      0.00%
system.ruby.L2Cache_Controller.MT_I.Ack_all          596      0.00%      0.00%
system.ruby.L2Cache_Controller.MT_I.MEM_Inv            7      0.00%      0.00%
system.ruby.L2Cache_Controller.MCT_I.WB_Data         1921      0.00%      0.00%
system.ruby.L2Cache_Controller.MCT_I.Ack_all         1251      0.00%      0.00%
system.ruby.L2Cache_Controller.I_I.Ack          11954      0.00%      0.00%
system.ruby.L2Cache_Controller.I_I.Ack_all        16808      0.00%      0.00%
system.ruby.L2Cache_Controller.S_I.Ack            592      0.00%      0.00%
system.ruby.L2Cache_Controller.S_I.Ack_all          524      0.00%      0.00%
system.ruby.L2Cache_Controller.ISS.L1_GETS           43      0.00%      0.00%
system.ruby.L2Cache_Controller.ISS.Mem_Data        31539      0.00%      0.00%
system.ruby.L2Cache_Controller.IS.L1_GET_INSTR            1      0.00%      0.00%
system.ruby.L2Cache_Controller.IS.Mem_Data        16576      0.00%      0.00%
system.ruby.L2Cache_Controller.IM.Mem_Data        26122      0.00%      0.00%
system.ruby.L2Cache_Controller.SS_MB.L1_GETS           28      0.00%      0.00%
system.ruby.L2Cache_Controller.SS_MB.L1_UPGRADE            1      0.00%      0.00%
system.ruby.L2Cache_Controller.SS_MB.Exclusive_Unblock         6097      0.00%      0.00%
system.ruby.L2Cache_Controller.MT_MB.L1_GETS           15      0.00%      0.00%
system.ruby.L2Cache_Controller.MT_MB.L1_GETX            3      0.00%      0.00%
system.ruby.L2Cache_Controller.MT_MB.Exclusive_Unblock       321551      0.00%      0.00%
system.ruby.L2Cache_Controller.MT_IIB.L1_GETS            4      0.00%      0.00%
system.ruby.L2Cache_Controller.MT_IIB.WB_Data         4652      0.00%      0.00%
system.ruby.L2Cache_Controller.MT_IIB.WB_Data_clean         2909      0.00%      0.00%
system.ruby.L2Cache_Controller.MT_IIB.Unblock           16      0.00%      0.00%
system.ruby.L2Cache_Controller.MT_IB.WB_Data            5      0.00%      0.00%
system.ruby.L2Cache_Controller.MT_IB.WB_Data_clean           11      0.00%      0.00%
system.ruby.L2Cache_Controller.MT_SB.Unblock         7561      0.00%      0.00%

---------- End Simulation Statistics   ----------
