
---------- Begin Simulation Statistics ----------
sim_seconds                                  4.204754                       # Number of seconds simulated
sim_ticks                                4204753515000                       # Number of ticks simulated
final_tick                               56403689125001                       # Number of ticks from beginning of simulation (restored from checkpoints and never reset)
sim_freq                                 1000000000000                       # Frequency of simulated ticks
host_inst_rate                                 161451                       # Simulator instruction rate (inst/s)
host_op_rate                                   226386                       # Simulator op (including micro ops) rate (op/s)
host_tick_rate                              301547384                       # Simulator tick rate (ticks/s)
host_mem_usage                                1915644                       # Number of bytes of host memory used
host_seconds                                 13943.92                       # Real time elapsed on the host
sim_insts                                  2251265771                       # Number of instructions simulated
sim_ops                                    3156707014                       # Number of ops (including micro ops) simulated
system.voltage_domain.voltage                       1                       # Voltage in Volts
system.clk_domain.clock                          1000                       # Clock period in ticks
system.mem_ctrls0.bytes_read::ruby.dir_cntrl0    108076032                       # Number of bytes read from this memory
system.mem_ctrls0.bytes_read::total         108076032                       # Number of bytes read from this memory
system.mem_ctrls0.bytes_written::ruby.dir_cntrl0    108095872                       # Number of bytes written to this memory
system.mem_ctrls0.bytes_written::total      108095872                       # Number of bytes written to this memory
system.mem_ctrls0.num_reads::ruby.dir_cntrl0      1688688                       # Number of read requests responded to by this memory
system.mem_ctrls0.num_reads::total            1688688                       # Number of read requests responded to by this memory
system.mem_ctrls0.num_writes::ruby.dir_cntrl0      1688998                       # Number of write requests responded to by this memory
system.mem_ctrls0.num_writes::total           1688998                       # Number of write requests responded to by this memory
system.mem_ctrls0.bw_read::ruby.dir_cntrl0     25703298                       # Total read bandwidth from this memory (bytes/s)
system.mem_ctrls0.bw_read::total             25703298                       # Total read bandwidth from this memory (bytes/s)
system.mem_ctrls0.bw_write::ruby.dir_cntrl0     25708016                       # Write bandwidth from this memory (bytes/s)
system.mem_ctrls0.bw_write::total            25708016                       # Write bandwidth from this memory (bytes/s)
system.mem_ctrls0.bw_total::ruby.dir_cntrl0     51411314                       # Total bandwidth to/from this memory (bytes/s)
system.mem_ctrls0.bw_total::total            51411314                       # Total bandwidth to/from this memory (bytes/s)
system.mem_ctrls0.readReqs                    1688688                       # Number of read requests accepted
system.mem_ctrls0.writeReqs                   1688998                       # Number of write requests accepted
system.mem_ctrls0.readBursts                  1688688                       # Number of DRAM read bursts, including those serviced by the write queue
system.mem_ctrls0.writeBursts                 1688998                       # Number of DRAM write bursts, including those merged in the write queue
system.mem_ctrls0.bytesReadDRAM              65923392                       # Total number of bytes read from DRAM
system.mem_ctrls0.bytesReadWrQ               42152640                       # Total number of bytes read from write queue
system.mem_ctrls0.bytesWritten               76281216                       # Total number of bytes written to DRAM
system.mem_ctrls0.bytesReadSys              108076032                       # Total read bytes from the system interface side
system.mem_ctrls0.bytesWrittenSys           108095872                       # Total written bytes from the system interface side
system.mem_ctrls0.servicedByWrQ                658635                       # Number of DRAM read bursts serviced by the write queue
system.mem_ctrls0.mergedWrBursts               497097                       # Number of DRAM write bursts merged with an existing one
system.mem_ctrls0.neitherReadNorWriteReqs            0                       # Number of requests that are neither read nor write
system.mem_ctrls0.perBankRdBursts::0            67919                       # Per bank write bursts
system.mem_ctrls0.perBankRdBursts::1            68852                       # Per bank write bursts
system.mem_ctrls0.perBankRdBursts::2            67951                       # Per bank write bursts
system.mem_ctrls0.perBankRdBursts::3            53237                       # Per bank write bursts
system.mem_ctrls0.perBankRdBursts::4            53208                       # Per bank write bursts
system.mem_ctrls0.perBankRdBursts::5            56950                       # Per bank write bursts
system.mem_ctrls0.perBankRdBursts::6            55507                       # Per bank write bursts
system.mem_ctrls0.perBankRdBursts::7            68703                       # Per bank write bursts
system.mem_ctrls0.perBankRdBursts::8            67037                       # Per bank write bursts
system.mem_ctrls0.perBankRdBursts::9            74968                       # Per bank write bursts
system.mem_ctrls0.perBankRdBursts::10           79173                       # Per bank write bursts
system.mem_ctrls0.perBankRdBursts::11           78612                       # Per bank write bursts
system.mem_ctrls0.perBankRdBursts::12           63471                       # Per bank write bursts
system.mem_ctrls0.perBankRdBursts::13           60453                       # Per bank write bursts
system.mem_ctrls0.perBankRdBursts::14           51230                       # Per bank write bursts
system.mem_ctrls0.perBankRdBursts::15           62782                       # Per bank write bursts
system.mem_ctrls0.perBankWrBursts::0            72495                       # Per bank write bursts
system.mem_ctrls0.perBankWrBursts::1            75392                       # Per bank write bursts
system.mem_ctrls0.perBankWrBursts::2            75181                       # Per bank write bursts
system.mem_ctrls0.perBankWrBursts::3            55890                       # Per bank write bursts
system.mem_ctrls0.perBankWrBursts::4            57838                       # Per bank write bursts
system.mem_ctrls0.perBankWrBursts::5            63268                       # Per bank write bursts
system.mem_ctrls0.perBankWrBursts::6            64278                       # Per bank write bursts
system.mem_ctrls0.perBankWrBursts::7            74860                       # Per bank write bursts
system.mem_ctrls0.perBankWrBursts::8            96791                       # Per bank write bursts
system.mem_ctrls0.perBankWrBursts::9           103742                       # Per bank write bursts
system.mem_ctrls0.perBankWrBursts::10           94880                       # Per bank write bursts
system.mem_ctrls0.perBankWrBursts::11           96440                       # Per bank write bursts
system.mem_ctrls0.perBankWrBursts::12           72325                       # Per bank write bursts
system.mem_ctrls0.perBankWrBursts::13           67434                       # Per bank write bursts
system.mem_ctrls0.perBankWrBursts::14           54013                       # Per bank write bursts
system.mem_ctrls0.perBankWrBursts::15           67067                       # Per bank write bursts
system.mem_ctrls0.numRdRetry                        0                       # Number of times read queue was full causing retry
system.mem_ctrls0.numWrRetry                        0                       # Number of times write queue was full causing retry
system.mem_ctrls0.totGap                 4204753486000                       # Total gap between requests
system.mem_ctrls0.readPktSize::0                    0                       # Read request sizes (log2)
system.mem_ctrls0.readPktSize::1                    0                       # Read request sizes (log2)
system.mem_ctrls0.readPktSize::2                    0                       # Read request sizes (log2)
system.mem_ctrls0.readPktSize::3                    0                       # Read request sizes (log2)
system.mem_ctrls0.readPktSize::4                    0                       # Read request sizes (log2)
system.mem_ctrls0.readPktSize::5                    0                       # Read request sizes (log2)
system.mem_ctrls0.readPktSize::6              1688688                       # Read request sizes (log2)
system.mem_ctrls0.writePktSize::0                   0                       # Write request sizes (log2)
system.mem_ctrls0.writePktSize::1                   0                       # Write request sizes (log2)
system.mem_ctrls0.writePktSize::2                   0                       # Write request sizes (log2)
system.mem_ctrls0.writePktSize::3                   0                       # Write request sizes (log2)
system.mem_ctrls0.writePktSize::4                   0                       # Write request sizes (log2)
system.mem_ctrls0.writePktSize::5                   0                       # Write request sizes (log2)
system.mem_ctrls0.writePktSize::6             1688998                       # Write request sizes (log2)
system.mem_ctrls0.rdQLenPdf::0                1029156                       # What read queue length does an incoming req see
system.mem_ctrls0.rdQLenPdf::1                    897                       # What read queue length does an incoming req see
system.mem_ctrls0.rdQLenPdf::2                      0                       # What read queue length does an incoming req see
system.mem_ctrls0.rdQLenPdf::3                      0                       # What read queue length does an incoming req see
system.mem_ctrls0.rdQLenPdf::4                      0                       # What read queue length does an incoming req see
system.mem_ctrls0.rdQLenPdf::5                      0                       # What read queue length does an incoming req see
system.mem_ctrls0.rdQLenPdf::6                      0                       # What read queue length does an incoming req see
system.mem_ctrls0.rdQLenPdf::7                      0                       # What read queue length does an incoming req see
system.mem_ctrls0.rdQLenPdf::8                      0                       # What read queue length does an incoming req see
system.mem_ctrls0.rdQLenPdf::9                      0                       # What read queue length does an incoming req see
system.mem_ctrls0.rdQLenPdf::10                     0                       # What read queue length does an incoming req see
system.mem_ctrls0.rdQLenPdf::11                     0                       # What read queue length does an incoming req see
system.mem_ctrls0.rdQLenPdf::12                     0                       # What read queue length does an incoming req see
system.mem_ctrls0.rdQLenPdf::13                     0                       # What read queue length does an incoming req see
system.mem_ctrls0.rdQLenPdf::14                     0                       # What read queue length does an incoming req see
system.mem_ctrls0.rdQLenPdf::15                     0                       # What read queue length does an incoming req see
system.mem_ctrls0.rdQLenPdf::16                     0                       # What read queue length does an incoming req see
system.mem_ctrls0.rdQLenPdf::17                     0                       # What read queue length does an incoming req see
system.mem_ctrls0.rdQLenPdf::18                     0                       # What read queue length does an incoming req see
system.mem_ctrls0.rdQLenPdf::19                     0                       # What read queue length does an incoming req see
system.mem_ctrls0.rdQLenPdf::20                     0                       # What read queue length does an incoming req see
system.mem_ctrls0.rdQLenPdf::21                     0                       # What read queue length does an incoming req see
system.mem_ctrls0.rdQLenPdf::22                     0                       # What read queue length does an incoming req see
system.mem_ctrls0.rdQLenPdf::23                     0                       # What read queue length does an incoming req see
system.mem_ctrls0.rdQLenPdf::24                     0                       # What read queue length does an incoming req see
system.mem_ctrls0.rdQLenPdf::25                     0                       # What read queue length does an incoming req see
system.mem_ctrls0.rdQLenPdf::26                     0                       # What read queue length does an incoming req see
system.mem_ctrls0.rdQLenPdf::27                     0                       # What read queue length does an incoming req see
system.mem_ctrls0.rdQLenPdf::28                     0                       # What read queue length does an incoming req see
system.mem_ctrls0.rdQLenPdf::29                     0                       # What read queue length does an incoming req see
system.mem_ctrls0.rdQLenPdf::30                     0                       # What read queue length does an incoming req see
system.mem_ctrls0.rdQLenPdf::31                     0                       # What read queue length does an incoming req see
system.mem_ctrls0.wrQLenPdf::0                      0                       # What write queue length does an incoming req see
system.mem_ctrls0.wrQLenPdf::1                      0                       # What write queue length does an incoming req see
system.mem_ctrls0.wrQLenPdf::2                      0                       # What write queue length does an incoming req see
system.mem_ctrls0.wrQLenPdf::3                      0                       # What write queue length does an incoming req see
system.mem_ctrls0.wrQLenPdf::4                      0                       # What write queue length does an incoming req see
system.mem_ctrls0.wrQLenPdf::5                      0                       # What write queue length does an incoming req see
system.mem_ctrls0.wrQLenPdf::6                      0                       # What write queue length does an incoming req see
system.mem_ctrls0.wrQLenPdf::7                      0                       # What write queue length does an incoming req see
system.mem_ctrls0.wrQLenPdf::8                      0                       # What write queue length does an incoming req see
system.mem_ctrls0.wrQLenPdf::9                      0                       # What write queue length does an incoming req see
system.mem_ctrls0.wrQLenPdf::10                     0                       # What write queue length does an incoming req see
system.mem_ctrls0.wrQLenPdf::11                     0                       # What write queue length does an incoming req see
system.mem_ctrls0.wrQLenPdf::12                     0                       # What write queue length does an incoming req see
system.mem_ctrls0.wrQLenPdf::13                     0                       # What write queue length does an incoming req see
system.mem_ctrls0.wrQLenPdf::14                     0                       # What write queue length does an incoming req see
system.mem_ctrls0.wrQLenPdf::15                 12584                       # What write queue length does an incoming req see
system.mem_ctrls0.wrQLenPdf::16                 12805                       # What write queue length does an incoming req see
system.mem_ctrls0.wrQLenPdf::17                 72034                       # What write queue length does an incoming req see
system.mem_ctrls0.wrQLenPdf::18                 73044                       # What write queue length does an incoming req see
system.mem_ctrls0.wrQLenPdf::19                 73054                       # What write queue length does an incoming req see
system.mem_ctrls0.wrQLenPdf::20                 73047                       # What write queue length does an incoming req see
system.mem_ctrls0.wrQLenPdf::21                 72960                       # What write queue length does an incoming req see
system.mem_ctrls0.wrQLenPdf::22                 72976                       # What write queue length does an incoming req see
system.mem_ctrls0.wrQLenPdf::23                 73041                       # What write queue length does an incoming req see
system.mem_ctrls0.wrQLenPdf::24                 73063                       # What write queue length does an incoming req see
system.mem_ctrls0.wrQLenPdf::25                 73083                       # What write queue length does an incoming req see
system.mem_ctrls0.wrQLenPdf::26                 72956                       # What write queue length does an incoming req see
system.mem_ctrls0.wrQLenPdf::27                 72872                       # What write queue length does an incoming req see
system.mem_ctrls0.wrQLenPdf::28                 72872                       # What write queue length does an incoming req see
system.mem_ctrls0.wrQLenPdf::29                 72868                       # What write queue length does an incoming req see
system.mem_ctrls0.wrQLenPdf::30                 72866                       # What write queue length does an incoming req see
system.mem_ctrls0.wrQLenPdf::31                 72863                       # What write queue length does an incoming req see
system.mem_ctrls0.wrQLenPdf::32                 72863                       # What write queue length does an incoming req see
system.mem_ctrls0.wrQLenPdf::33                    47                       # What write queue length does an incoming req see
system.mem_ctrls0.wrQLenPdf::34                     3                       # What write queue length does an incoming req see
system.mem_ctrls0.wrQLenPdf::35                     0                       # What write queue length does an incoming req see
system.mem_ctrls0.wrQLenPdf::36                     0                       # What write queue length does an incoming req see
system.mem_ctrls0.wrQLenPdf::37                     0                       # What write queue length does an incoming req see
system.mem_ctrls0.wrQLenPdf::38                     0                       # What write queue length does an incoming req see
system.mem_ctrls0.wrQLenPdf::39                     0                       # What write queue length does an incoming req see
system.mem_ctrls0.wrQLenPdf::40                     0                       # What write queue length does an incoming req see
system.mem_ctrls0.wrQLenPdf::41                     0                       # What write queue length does an incoming req see
system.mem_ctrls0.wrQLenPdf::42                     0                       # What write queue length does an incoming req see
system.mem_ctrls0.wrQLenPdf::43                     0                       # What write queue length does an incoming req see
system.mem_ctrls0.wrQLenPdf::44                     0                       # What write queue length does an incoming req see
system.mem_ctrls0.wrQLenPdf::45                     0                       # What write queue length does an incoming req see
system.mem_ctrls0.wrQLenPdf::46                     0                       # What write queue length does an incoming req see
system.mem_ctrls0.wrQLenPdf::47                     0                       # What write queue length does an incoming req see
system.mem_ctrls0.wrQLenPdf::48                     0                       # What write queue length does an incoming req see
system.mem_ctrls0.wrQLenPdf::49                     0                       # What write queue length does an incoming req see
system.mem_ctrls0.wrQLenPdf::50                     0                       # What write queue length does an incoming req see
system.mem_ctrls0.wrQLenPdf::51                     0                       # What write queue length does an incoming req see
system.mem_ctrls0.wrQLenPdf::52                     0                       # What write queue length does an incoming req see
system.mem_ctrls0.wrQLenPdf::53                     0                       # What write queue length does an incoming req see
system.mem_ctrls0.wrQLenPdf::54                     0                       # What write queue length does an incoming req see
system.mem_ctrls0.wrQLenPdf::55                     0                       # What write queue length does an incoming req see
system.mem_ctrls0.wrQLenPdf::56                     0                       # What write queue length does an incoming req see
system.mem_ctrls0.wrQLenPdf::57                     0                       # What write queue length does an incoming req see
system.mem_ctrls0.wrQLenPdf::58                     0                       # What write queue length does an incoming req see
system.mem_ctrls0.wrQLenPdf::59                     0                       # What write queue length does an incoming req see
system.mem_ctrls0.wrQLenPdf::60                     0                       # What write queue length does an incoming req see
system.mem_ctrls0.wrQLenPdf::61                     0                       # What write queue length does an incoming req see
system.mem_ctrls0.wrQLenPdf::62                     0                       # What write queue length does an incoming req see
system.mem_ctrls0.wrQLenPdf::63                     0                       # What write queue length does an incoming req see
system.mem_ctrls0.bytesPerActivate::samples      1394724                       # Bytes accessed per row activation
system.mem_ctrls0.bytesPerActivate::mean   101.958822                       # Bytes accessed per row activation
system.mem_ctrls0.bytesPerActivate::gmean    86.916143                       # Bytes accessed per row activation
system.mem_ctrls0.bytesPerActivate::stdev    83.088039                       # Bytes accessed per row activation
system.mem_ctrls0.bytesPerActivate::0-127       944675     67.73%     67.73% # Bytes accessed per row activation
system.mem_ctrls0.bytesPerActivate::128-255       371474     26.63%     94.37% # Bytes accessed per row activation
system.mem_ctrls0.bytesPerActivate::256-383        57100      4.09%     98.46% # Bytes accessed per row activation
system.mem_ctrls0.bytesPerActivate::384-511        12414      0.89%     99.35% # Bytes accessed per row activation
system.mem_ctrls0.bytesPerActivate::512-639         3242      0.23%     99.58% # Bytes accessed per row activation
system.mem_ctrls0.bytesPerActivate::640-767         1342      0.10%     99.68% # Bytes accessed per row activation
system.mem_ctrls0.bytesPerActivate::768-895          998      0.07%     99.75% # Bytes accessed per row activation
system.mem_ctrls0.bytesPerActivate::896-1023          894      0.06%     99.81% # Bytes accessed per row activation
system.mem_ctrls0.bytesPerActivate::1024-1151         2585      0.19%    100.00% # Bytes accessed per row activation
system.mem_ctrls0.bytesPerActivate::total      1394724                       # Bytes accessed per row activation
system.mem_ctrls0.rdPerTurnAround::samples        72863                       # Reads before turning the bus around for writes
system.mem_ctrls0.rdPerTurnAround::mean     14.136764                       # Reads before turning the bus around for writes
system.mem_ctrls0.rdPerTurnAround::gmean    13.756624                       # Reads before turning the bus around for writes
system.mem_ctrls0.rdPerTurnAround::stdev     3.196948                       # Reads before turning the bus around for writes
system.mem_ctrls0.rdPerTurnAround::2-3             24      0.03%      0.03% # Reads before turning the bus around for writes
system.mem_ctrls0.rdPerTurnAround::4-5            425      0.58%      0.62% # Reads before turning the bus around for writes
system.mem_ctrls0.rdPerTurnAround::6-7           1922      2.64%      3.25% # Reads before turning the bus around for writes
system.mem_ctrls0.rdPerTurnAround::8-9           3114      4.27%      7.53% # Reads before turning the bus around for writes
system.mem_ctrls0.rdPerTurnAround::10-11         6591      9.05%     16.57% # Reads before turning the bus around for writes
system.mem_ctrls0.rdPerTurnAround::12-13        12493     17.15%     33.72% # Reads before turning the bus around for writes
system.mem_ctrls0.rdPerTurnAround::14-15        20897     28.68%     62.40% # Reads before turning the bus around for writes
system.mem_ctrls0.rdPerTurnAround::16-17        25017     34.33%     96.73% # Reads before turning the bus around for writes
system.mem_ctrls0.rdPerTurnAround::18-19         1162      1.59%     98.33% # Reads before turning the bus around for writes
system.mem_ctrls0.rdPerTurnAround::20-21          245      0.34%     98.66% # Reads before turning the bus around for writes
system.mem_ctrls0.rdPerTurnAround::22-23          147      0.20%     98.87% # Reads before turning the bus around for writes
system.mem_ctrls0.rdPerTurnAround::24-25          144      0.20%     99.06% # Reads before turning the bus around for writes
system.mem_ctrls0.rdPerTurnAround::26-27          162      0.22%     99.29% # Reads before turning the bus around for writes
system.mem_ctrls0.rdPerTurnAround::28-29          152      0.21%     99.49% # Reads before turning the bus around for writes
system.mem_ctrls0.rdPerTurnAround::30-31          121      0.17%     99.66% # Reads before turning the bus around for writes
system.mem_ctrls0.rdPerTurnAround::32-33           84      0.12%     99.78% # Reads before turning the bus around for writes
system.mem_ctrls0.rdPerTurnAround::34-35           55      0.08%     99.85% # Reads before turning the bus around for writes
system.mem_ctrls0.rdPerTurnAround::36-37           27      0.04%     99.89% # Reads before turning the bus around for writes
system.mem_ctrls0.rdPerTurnAround::38-39           28      0.04%     99.93% # Reads before turning the bus around for writes
system.mem_ctrls0.rdPerTurnAround::40-41           24      0.03%     99.96% # Reads before turning the bus around for writes
system.mem_ctrls0.rdPerTurnAround::42-43           13      0.02%     99.98% # Reads before turning the bus around for writes
system.mem_ctrls0.rdPerTurnAround::44-45            8      0.01%     99.99% # Reads before turning the bus around for writes
system.mem_ctrls0.rdPerTurnAround::46-47            7      0.01%    100.00% # Reads before turning the bus around for writes
system.mem_ctrls0.rdPerTurnAround::50-51            1      0.00%    100.00% # Reads before turning the bus around for writes
system.mem_ctrls0.rdPerTurnAround::total        72863                       # Reads before turning the bus around for writes
system.mem_ctrls0.wrPerTurnAround::samples        72863                       # Writes before turning the bus around for reads
system.mem_ctrls0.wrPerTurnAround::mean     16.358014                       # Writes before turning the bus around for reads
system.mem_ctrls0.wrPerTurnAround::gmean    16.340347                       # Writes before turning the bus around for reads
system.mem_ctrls0.wrPerTurnAround::stdev     0.781122                       # Writes before turning the bus around for reads
system.mem_ctrls0.wrPerTurnAround::16           60035     82.39%     82.39% # Writes before turning the bus around for reads
system.mem_ctrls0.wrPerTurnAround::17             139      0.19%     82.59% # Writes before turning the bus around for reads
system.mem_ctrls0.wrPerTurnAround::18           12146     16.67%     99.25% # Writes before turning the bus around for reads
system.mem_ctrls0.wrPerTurnAround::19             519      0.71%     99.97% # Writes before turning the bus around for reads
system.mem_ctrls0.wrPerTurnAround::20              22      0.03%    100.00% # Writes before turning the bus around for reads
system.mem_ctrls0.wrPerTurnAround::21               2      0.00%    100.00% # Writes before turning the bus around for reads
system.mem_ctrls0.wrPerTurnAround::total        72863                       # Writes before turning the bus around for reads
system.mem_ctrls0.totQLat                 20633295988                       # Total ticks spent queuing
system.mem_ctrls0.totMemAccLat            39946789738                       # Total ticks spent from burst creation until serviced by the DRAM
system.mem_ctrls0.totBusLat                5150265000                       # Total ticks spent in databus transfers
system.mem_ctrls0.avgQLat                    20031.30                       # Average queueing delay per DRAM burst
system.mem_ctrls0.avgBusLat                   5000.00                       # Average bus latency per DRAM burst
system.mem_ctrls0.avgMemAccLat               38781.30                       # Average memory access latency per DRAM burst
system.mem_ctrls0.avgRdBW                       15.68                       # Average DRAM read bandwidth in MiByte/s
system.mem_ctrls0.avgWrBW                       18.14                       # Average achieved write bandwidth in MiByte/s
system.mem_ctrls0.avgRdBWSys                    25.70                       # Average system read bandwidth in MiByte/s
system.mem_ctrls0.avgWrBWSys                    25.71                       # Average system write bandwidth in MiByte/s
system.mem_ctrls0.peakBW                     12800.00                       # Theoretical peak bandwidth in MiByte/s
system.mem_ctrls0.busUtil                        0.26                       # Data bus utilization in percentage
system.mem_ctrls0.busUtilRead                    0.12                       # Data bus utilization in percentage for reads
system.mem_ctrls0.busUtilWrite                   0.14                       # Data bus utilization in percentage for writes
system.mem_ctrls0.avgRdQLen                      1.00                       # Average read queue length when enqueuing
system.mem_ctrls0.avgWrQLen                     25.33                       # Average write queue length when enqueuing
system.mem_ctrls0.readRowHits                  318080                       # Number of row buffer hits during reads
system.mem_ctrls0.writeRowHits                 509143                       # Number of row buffer hits during writes
system.mem_ctrls0.readRowHitRate                30.88                       # Row buffer hit rate for reads
system.mem_ctrls0.writeRowHitRate               42.72                       # Row buffer hit rate for writes
system.mem_ctrls0.avgGap                   1244862.16                       # Average gap between requests
system.mem_ctrls0.pageHitRate                   37.23                       # Row buffer hit rate, read and write combined
system.mem_ctrls0_0.actEnergy              4993289280                       # Energy for activate commands per rank (pJ)
system.mem_ctrls0_0.preEnergy              2724513000                       # Energy for precharge commands per rank (pJ)
system.mem_ctrls0_0.readEnergy             3876810600                       # Energy for read commands per rank (pJ)
system.mem_ctrls0_0.writeEnergy            3524575680                       # Energy for write commands per rank (pJ)
system.mem_ctrls0_0.refreshEnergy        274961100960                       # Energy for refresh commands per rank (pJ)
system.mem_ctrls0_0.actBackEnergy        641951216280                       # Energy for active background per rank (pJ)
system.mem_ctrls0_0.preBackEnergy        1962741439500                       # Energy for precharge background per rank (pJ)
system.mem_ctrls0_0.totalEnergy          2894772945300                       # Total energy per rank (pJ)
system.mem_ctrls0_0.averagePower           687.633576                       # Core power per rank (mW)
system.mem_ctrls0_0.memoryStateTime::IDLE 3260247857250                       # Time in different power states
system.mem_ctrls0_0.memoryStateTime::REF 140405980000                       # Time in different power states
system.mem_ctrls0_0.memoryStateTime::PRE_PDN            0                       # Time in different power states
system.mem_ctrls0_0.memoryStateTime::ACT 804099166250                       # Time in different power states
system.mem_ctrls0_0.memoryStateTime::ACT_PDN            0                       # Time in different power states
system.mem_ctrls0_1.actEnergy              5630030280                       # Energy for activate commands per rank (pJ)
system.mem_ctrls0_1.preEnergy              3071941125                       # Energy for precharge commands per rank (pJ)
system.mem_ctrls0_1.readEnergy             4235431200                       # Energy for read commands per rank (pJ)
system.mem_ctrls0_1.writeEnergy            4264565760                       # Energy for write commands per rank (pJ)
system.mem_ctrls0_1.refreshEnergy        274961100960                       # Energy for refresh commands per rank (pJ)
system.mem_ctrls0_1.actBackEnergy        666824566770                       # Energy for active background per rank (pJ)
system.mem_ctrls0_1.preBackEnergy        1940922711000                       # Energy for precharge background per rank (pJ)
system.mem_ctrls0_1.totalEnergy          2899910347095                       # Total energy per rank (pJ)
system.mem_ctrls0_1.averagePower           688.853931                       # Core power per rank (mW)
system.mem_ctrls0_1.memoryStateTime::IDLE 3224045204250                       # Time in different power states
system.mem_ctrls0_1.memoryStateTime::REF 140405980000                       # Time in different power states
system.mem_ctrls0_1.memoryStateTime::PRE_PDN            0                       # Time in different power states
system.mem_ctrls0_1.memoryStateTime::ACT 840302963750                       # Time in different power states
system.mem_ctrls0_1.memoryStateTime::ACT_PDN            0                       # Time in different power states
system.mem_ctrls1.bytes_read::ruby.dir_cntrl1    214773184                       # Number of bytes read from this memory
system.mem_ctrls1.bytes_read::total         214773184                       # Number of bytes read from this memory
system.mem_ctrls1.bytes_written::ruby.dir_cntrl1    214793088                       # Number of bytes written to this memory
system.mem_ctrls1.bytes_written::total      214793088                       # Number of bytes written to this memory
system.mem_ctrls1.num_reads::ruby.dir_cntrl1      3355831                       # Number of read requests responded to by this memory
system.mem_ctrls1.num_reads::total            3355831                       # Number of read requests responded to by this memory
system.mem_ctrls1.num_writes::ruby.dir_cntrl1      3356142                       # Number of write requests responded to by this memory
system.mem_ctrls1.num_writes::total           3356142                       # Number of write requests responded to by this memory
system.mem_ctrls1.bw_read::ruby.dir_cntrl1     51078662                       # Total read bandwidth from this memory (bytes/s)
system.mem_ctrls1.bw_read::total             51078662                       # Total read bandwidth from this memory (bytes/s)
system.mem_ctrls1.bw_write::ruby.dir_cntrl1     51083396                       # Write bandwidth from this memory (bytes/s)
system.mem_ctrls1.bw_write::total            51083396                       # Write bandwidth from this memory (bytes/s)
system.mem_ctrls1.bw_total::ruby.dir_cntrl1    102162058                       # Total bandwidth to/from this memory (bytes/s)
system.mem_ctrls1.bw_total::total           102162058                       # Total bandwidth to/from this memory (bytes/s)
system.mem_ctrls1.readReqs                    3355831                       # Number of read requests accepted
system.mem_ctrls1.writeReqs                   3356142                       # Number of write requests accepted
system.mem_ctrls1.readBursts                  3355831                       # Number of DRAM read bursts, including those serviced by the write queue
system.mem_ctrls1.writeBursts                 3356142                       # Number of DRAM write bursts, including those merged in the write queue
system.mem_ctrls1.bytesReadDRAM              65119552                       # Total number of bytes read from DRAM
system.mem_ctrls1.bytesReadWrQ              149653632                       # Total number of bytes read from write queue
system.mem_ctrls1.bytesWritten               74247232                       # Total number of bytes written to DRAM
system.mem_ctrls1.bytesReadSys              214773184                       # Total read bytes from the system interface side
system.mem_ctrls1.bytesWrittenSys           214793088                       # Total written bytes from the system interface side
system.mem_ctrls1.servicedByWrQ               2338338                       # Number of DRAM read bursts serviced by the write queue
system.mem_ctrls1.mergedWrBursts              2196028                       # Number of DRAM write bursts merged with an existing one
system.mem_ctrls1.neitherReadNorWriteReqs            0                       # Number of requests that are neither read nor write
system.mem_ctrls1.perBankRdBursts::0            65875                       # Per bank write bursts
system.mem_ctrls1.perBankRdBursts::1            65267                       # Per bank write bursts
system.mem_ctrls1.perBankRdBursts::2            63386                       # Per bank write bursts
system.mem_ctrls1.perBankRdBursts::3            52388                       # Per bank write bursts
system.mem_ctrls1.perBankRdBursts::4            57117                       # Per bank write bursts
system.mem_ctrls1.perBankRdBursts::5            54885                       # Per bank write bursts
system.mem_ctrls1.perBankRdBursts::6            55822                       # Per bank write bursts
system.mem_ctrls1.perBankRdBursts::7            66405                       # Per bank write bursts
system.mem_ctrls1.perBankRdBursts::8            88175                       # Per bank write bursts
system.mem_ctrls1.perBankRdBursts::9            74862                       # Per bank write bursts
system.mem_ctrls1.perBankRdBursts::10           65072                       # Per bank write bursts
system.mem_ctrls1.perBankRdBursts::11           79887                       # Per bank write bursts
system.mem_ctrls1.perBankRdBursts::12           61908                       # Per bank write bursts
system.mem_ctrls1.perBankRdBursts::13           52548                       # Per bank write bursts
system.mem_ctrls1.perBankRdBursts::14           53430                       # Per bank write bursts
system.mem_ctrls1.perBankRdBursts::15           60466                       # Per bank write bursts
system.mem_ctrls1.perBankWrBursts::0            69614                       # Per bank write bursts
system.mem_ctrls1.perBankWrBursts::1            69490                       # Per bank write bursts
system.mem_ctrls1.perBankWrBursts::2            68125                       # Per bank write bursts
system.mem_ctrls1.perBankWrBursts::3            55081                       # Per bank write bursts
system.mem_ctrls1.perBankWrBursts::4            61724                       # Per bank write bursts
system.mem_ctrls1.perBankWrBursts::5            59368                       # Per bank write bursts
system.mem_ctrls1.perBankWrBursts::6            61303                       # Per bank write bursts
system.mem_ctrls1.perBankWrBursts::7            72352                       # Per bank write bursts
system.mem_ctrls1.perBankWrBursts::8           106445                       # Per bank write bursts
system.mem_ctrls1.perBankWrBursts::9           101754                       # Per bank write bursts
system.mem_ctrls1.perBankWrBursts::10           89944                       # Per bank write bursts
system.mem_ctrls1.perBankWrBursts::11           96751                       # Per bank write bursts
system.mem_ctrls1.perBankWrBursts::12           69478                       # Per bank write bursts
system.mem_ctrls1.perBankWrBursts::13           57690                       # Per bank write bursts
system.mem_ctrls1.perBankWrBursts::14           56245                       # Per bank write bursts
system.mem_ctrls1.perBankWrBursts::15           64749                       # Per bank write bursts
system.mem_ctrls1.numRdRetry                        0                       # Number of times read queue was full causing retry
system.mem_ctrls1.numWrRetry                        0                       # Number of times write queue was full causing retry
system.mem_ctrls1.totGap                 4204754482000                       # Total gap between requests
system.mem_ctrls1.readPktSize::0                    0                       # Read request sizes (log2)
system.mem_ctrls1.readPktSize::1                    0                       # Read request sizes (log2)
system.mem_ctrls1.readPktSize::2                    0                       # Read request sizes (log2)
system.mem_ctrls1.readPktSize::3                    0                       # Read request sizes (log2)
system.mem_ctrls1.readPktSize::4                    0                       # Read request sizes (log2)
system.mem_ctrls1.readPktSize::5                    0                       # Read request sizes (log2)
system.mem_ctrls1.readPktSize::6              3355831                       # Read request sizes (log2)
system.mem_ctrls1.writePktSize::0                   0                       # Write request sizes (log2)
system.mem_ctrls1.writePktSize::1                   0                       # Write request sizes (log2)
system.mem_ctrls1.writePktSize::2                   0                       # Write request sizes (log2)
system.mem_ctrls1.writePktSize::3                   0                       # Write request sizes (log2)
system.mem_ctrls1.writePktSize::4                   0                       # Write request sizes (log2)
system.mem_ctrls1.writePktSize::5                   0                       # Write request sizes (log2)
system.mem_ctrls1.writePktSize::6             3356142                       # Write request sizes (log2)
system.mem_ctrls1.rdQLenPdf::0                1016769                       # What read queue length does an incoming req see
system.mem_ctrls1.rdQLenPdf::1                    724                       # What read queue length does an incoming req see
system.mem_ctrls1.rdQLenPdf::2                      0                       # What read queue length does an incoming req see
system.mem_ctrls1.rdQLenPdf::3                      0                       # What read queue length does an incoming req see
system.mem_ctrls1.rdQLenPdf::4                      0                       # What read queue length does an incoming req see
system.mem_ctrls1.rdQLenPdf::5                      0                       # What read queue length does an incoming req see
system.mem_ctrls1.rdQLenPdf::6                      0                       # What read queue length does an incoming req see
system.mem_ctrls1.rdQLenPdf::7                      0                       # What read queue length does an incoming req see
system.mem_ctrls1.rdQLenPdf::8                      0                       # What read queue length does an incoming req see
system.mem_ctrls1.rdQLenPdf::9                      0                       # What read queue length does an incoming req see
system.mem_ctrls1.rdQLenPdf::10                     0                       # What read queue length does an incoming req see
system.mem_ctrls1.rdQLenPdf::11                     0                       # What read queue length does an incoming req see
system.mem_ctrls1.rdQLenPdf::12                     0                       # What read queue length does an incoming req see
system.mem_ctrls1.rdQLenPdf::13                     0                       # What read queue length does an incoming req see
system.mem_ctrls1.rdQLenPdf::14                     0                       # What read queue length does an incoming req see
system.mem_ctrls1.rdQLenPdf::15                     0                       # What read queue length does an incoming req see
system.mem_ctrls1.rdQLenPdf::16                     0                       # What read queue length does an incoming req see
system.mem_ctrls1.rdQLenPdf::17                     0                       # What read queue length does an incoming req see
system.mem_ctrls1.rdQLenPdf::18                     0                       # What read queue length does an incoming req see
system.mem_ctrls1.rdQLenPdf::19                     0                       # What read queue length does an incoming req see
system.mem_ctrls1.rdQLenPdf::20                     0                       # What read queue length does an incoming req see
system.mem_ctrls1.rdQLenPdf::21                     0                       # What read queue length does an incoming req see
system.mem_ctrls1.rdQLenPdf::22                     0                       # What read queue length does an incoming req see
system.mem_ctrls1.rdQLenPdf::23                     0                       # What read queue length does an incoming req see
system.mem_ctrls1.rdQLenPdf::24                     0                       # What read queue length does an incoming req see
system.mem_ctrls1.rdQLenPdf::25                     0                       # What read queue length does an incoming req see
system.mem_ctrls1.rdQLenPdf::26                     0                       # What read queue length does an incoming req see
system.mem_ctrls1.rdQLenPdf::27                     0                       # What read queue length does an incoming req see
system.mem_ctrls1.rdQLenPdf::28                     0                       # What read queue length does an incoming req see
system.mem_ctrls1.rdQLenPdf::29                     0                       # What read queue length does an incoming req see
system.mem_ctrls1.rdQLenPdf::30                     0                       # What read queue length does an incoming req see
system.mem_ctrls1.rdQLenPdf::31                     0                       # What read queue length does an incoming req see
system.mem_ctrls1.wrQLenPdf::0                      0                       # What write queue length does an incoming req see
system.mem_ctrls1.wrQLenPdf::1                      0                       # What write queue length does an incoming req see
system.mem_ctrls1.wrQLenPdf::2                      0                       # What write queue length does an incoming req see
system.mem_ctrls1.wrQLenPdf::3                      0                       # What write queue length does an incoming req see
system.mem_ctrls1.wrQLenPdf::4                      0                       # What write queue length does an incoming req see
system.mem_ctrls1.wrQLenPdf::5                      0                       # What write queue length does an incoming req see
system.mem_ctrls1.wrQLenPdf::6                      0                       # What write queue length does an incoming req see
system.mem_ctrls1.wrQLenPdf::7                      0                       # What write queue length does an incoming req see
system.mem_ctrls1.wrQLenPdf::8                      0                       # What write queue length does an incoming req see
system.mem_ctrls1.wrQLenPdf::9                      0                       # What write queue length does an incoming req see
system.mem_ctrls1.wrQLenPdf::10                     0                       # What write queue length does an incoming req see
system.mem_ctrls1.wrQLenPdf::11                     0                       # What write queue length does an incoming req see
system.mem_ctrls1.wrQLenPdf::12                     0                       # What write queue length does an incoming req see
system.mem_ctrls1.wrQLenPdf::13                     0                       # What write queue length does an incoming req see
system.mem_ctrls1.wrQLenPdf::14                     0                       # What write queue length does an incoming req see
system.mem_ctrls1.wrQLenPdf::15                 11235                       # What write queue length does an incoming req see
system.mem_ctrls1.wrQLenPdf::16                 11374                       # What write queue length does an incoming req see
system.mem_ctrls1.wrQLenPdf::17                 70543                       # What write queue length does an incoming req see
system.mem_ctrls1.wrQLenPdf::18                 71191                       # What write queue length does an incoming req see
system.mem_ctrls1.wrQLenPdf::19                 71230                       # What write queue length does an incoming req see
system.mem_ctrls1.wrQLenPdf::20                 71142                       # What write queue length does an incoming req see
system.mem_ctrls1.wrQLenPdf::21                 71157                       # What write queue length does an incoming req see
system.mem_ctrls1.wrQLenPdf::22                 71155                       # What write queue length does an incoming req see
system.mem_ctrls1.wrQLenPdf::23                 71174                       # What write queue length does an incoming req see
system.mem_ctrls1.wrQLenPdf::24                 71167                       # What write queue length does an incoming req see
system.mem_ctrls1.wrQLenPdf::25                 71190                       # What write queue length does an incoming req see
system.mem_ctrls1.wrQLenPdf::26                 71114                       # What write queue length does an incoming req see
system.mem_ctrls1.wrQLenPdf::27                 71074                       # What write queue length does an incoming req see
system.mem_ctrls1.wrQLenPdf::28                 71069                       # What write queue length does an incoming req see
system.mem_ctrls1.wrQLenPdf::29                 71071                       # What write queue length does an incoming req see
system.mem_ctrls1.wrQLenPdf::30                 71066                       # What write queue length does an incoming req see
system.mem_ctrls1.wrQLenPdf::31                 71065                       # What write queue length does an incoming req see
system.mem_ctrls1.wrQLenPdf::32                 71065                       # What write queue length does an incoming req see
system.mem_ctrls1.wrQLenPdf::33                    29                       # What write queue length does an incoming req see
system.mem_ctrls1.wrQLenPdf::34                     3                       # What write queue length does an incoming req see
system.mem_ctrls1.wrQLenPdf::35                     0                       # What write queue length does an incoming req see
system.mem_ctrls1.wrQLenPdf::36                     0                       # What write queue length does an incoming req see
system.mem_ctrls1.wrQLenPdf::37                     0                       # What write queue length does an incoming req see
system.mem_ctrls1.wrQLenPdf::38                     0                       # What write queue length does an incoming req see
system.mem_ctrls1.wrQLenPdf::39                     0                       # What write queue length does an incoming req see
system.mem_ctrls1.wrQLenPdf::40                     0                       # What write queue length does an incoming req see
system.mem_ctrls1.wrQLenPdf::41                     0                       # What write queue length does an incoming req see
system.mem_ctrls1.wrQLenPdf::42                     0                       # What write queue length does an incoming req see
system.mem_ctrls1.wrQLenPdf::43                     0                       # What write queue length does an incoming req see
system.mem_ctrls1.wrQLenPdf::44                     0                       # What write queue length does an incoming req see
system.mem_ctrls1.wrQLenPdf::45                     0                       # What write queue length does an incoming req see
system.mem_ctrls1.wrQLenPdf::46                     0                       # What write queue length does an incoming req see
system.mem_ctrls1.wrQLenPdf::47                     0                       # What write queue length does an incoming req see
system.mem_ctrls1.wrQLenPdf::48                     0                       # What write queue length does an incoming req see
system.mem_ctrls1.wrQLenPdf::49                     0                       # What write queue length does an incoming req see
system.mem_ctrls1.wrQLenPdf::50                     0                       # What write queue length does an incoming req see
system.mem_ctrls1.wrQLenPdf::51                     0                       # What write queue length does an incoming req see
system.mem_ctrls1.wrQLenPdf::52                     0                       # What write queue length does an incoming req see
system.mem_ctrls1.wrQLenPdf::53                     0                       # What write queue length does an incoming req see
system.mem_ctrls1.wrQLenPdf::54                     0                       # What write queue length does an incoming req see
system.mem_ctrls1.wrQLenPdf::55                     0                       # What write queue length does an incoming req see
system.mem_ctrls1.wrQLenPdf::56                     0                       # What write queue length does an incoming req see
system.mem_ctrls1.wrQLenPdf::57                     0                       # What write queue length does an incoming req see
system.mem_ctrls1.wrQLenPdf::58                     0                       # What write queue length does an incoming req see
system.mem_ctrls1.wrQLenPdf::59                     0                       # What write queue length does an incoming req see
system.mem_ctrls1.wrQLenPdf::60                     0                       # What write queue length does an incoming req see
system.mem_ctrls1.wrQLenPdf::61                     0                       # What write queue length does an incoming req see
system.mem_ctrls1.wrQLenPdf::62                     0                       # What write queue length does an incoming req see
system.mem_ctrls1.wrQLenPdf::63                     0                       # What write queue length does an incoming req see
system.mem_ctrls1.bytesPerActivate::samples      1347189                       # Bytes accessed per row activation
system.mem_ctrls1.bytesPerActivate::mean   103.450346                       # Bytes accessed per row activation
system.mem_ctrls1.bytesPerActivate::gmean    87.798370                       # Bytes accessed per row activation
system.mem_ctrls1.bytesPerActivate::stdev    85.108243                       # Bytes accessed per row activation
system.mem_ctrls1.bytesPerActivate::0-127       900888     66.87%     66.87% # Bytes accessed per row activation
system.mem_ctrls1.bytesPerActivate::128-255       365988     27.17%     94.04% # Bytes accessed per row activation
system.mem_ctrls1.bytesPerActivate::256-383        57808      4.29%     98.33% # Bytes accessed per row activation
system.mem_ctrls1.bytesPerActivate::384-511        13184      0.98%     99.31% # Bytes accessed per row activation
system.mem_ctrls1.bytesPerActivate::512-639         3413      0.25%     99.56% # Bytes accessed per row activation
system.mem_ctrls1.bytesPerActivate::640-767         1417      0.11%     99.67% # Bytes accessed per row activation
system.mem_ctrls1.bytesPerActivate::768-895          924      0.07%     99.74% # Bytes accessed per row activation
system.mem_ctrls1.bytesPerActivate::896-1023          863      0.06%     99.80% # Bytes accessed per row activation
system.mem_ctrls1.bytesPerActivate::1024-1151         2704      0.20%    100.00% # Bytes accessed per row activation
system.mem_ctrls1.bytesPerActivate::total      1347189                       # Bytes accessed per row activation
system.mem_ctrls1.rdPerTurnAround::samples        71065                       # Reads before turning the bus around for writes
system.mem_ctrls1.rdPerTurnAround::mean     14.317765                       # Reads before turning the bus around for writes
system.mem_ctrls1.rdPerTurnAround::stdev     3.020909                       # Reads before turning the bus around for writes
system.mem_ctrls1.rdPerTurnAround::0-1              2      0.00%      0.00% # Reads before turning the bus around for writes
system.mem_ctrls1.rdPerTurnAround::2-3             40      0.06%      0.06% # Reads before turning the bus around for writes
system.mem_ctrls1.rdPerTurnAround::4-5            510      0.72%      0.78% # Reads before turning the bus around for writes
system.mem_ctrls1.rdPerTurnAround::6-7           1475      2.08%      2.85% # Reads before turning the bus around for writes
system.mem_ctrls1.rdPerTurnAround::8-9           2174      3.06%      5.91% # Reads before turning the bus around for writes
system.mem_ctrls1.rdPerTurnAround::10-11         5326      7.49%     13.41% # Reads before turning the bus around for writes
system.mem_ctrls1.rdPerTurnAround::12-13        11827     16.64%     30.05% # Reads before turning the bus around for writes
system.mem_ctrls1.rdPerTurnAround::14-15        22106     31.11%     61.16% # Reads before turning the bus around for writes
system.mem_ctrls1.rdPerTurnAround::16-17        25304     35.61%     96.76% # Reads before turning the bus around for writes
system.mem_ctrls1.rdPerTurnAround::18-19         1160      1.63%     98.39% # Reads before turning the bus around for writes
system.mem_ctrls1.rdPerTurnAround::20-21          235      0.33%     98.73% # Reads before turning the bus around for writes
system.mem_ctrls1.rdPerTurnAround::22-23          148      0.21%     98.93% # Reads before turning the bus around for writes
system.mem_ctrls1.rdPerTurnAround::24-25          161      0.23%     99.16% # Reads before turning the bus around for writes
system.mem_ctrls1.rdPerTurnAround::26-27          168      0.24%     99.40% # Reads before turning the bus around for writes
system.mem_ctrls1.rdPerTurnAround::28-29          134      0.19%     99.58% # Reads before turning the bus around for writes
system.mem_ctrls1.rdPerTurnAround::30-31          107      0.15%     99.74% # Reads before turning the bus around for writes
system.mem_ctrls1.rdPerTurnAround::32-33           49      0.07%     99.80% # Reads before turning the bus around for writes
system.mem_ctrls1.rdPerTurnAround::34-35           44      0.06%     99.87% # Reads before turning the bus around for writes
system.mem_ctrls1.rdPerTurnAround::36-37           31      0.04%     99.91% # Reads before turning the bus around for writes
system.mem_ctrls1.rdPerTurnAround::38-39           24      0.03%     99.94% # Reads before turning the bus around for writes
system.mem_ctrls1.rdPerTurnAround::40-41           12      0.02%     99.96% # Reads before turning the bus around for writes
system.mem_ctrls1.rdPerTurnAround::42-43           16      0.02%     99.98% # Reads before turning the bus around for writes
system.mem_ctrls1.rdPerTurnAround::44-45            4      0.01%     99.99% # Reads before turning the bus around for writes
system.mem_ctrls1.rdPerTurnAround::46-47            4      0.01%     99.99% # Reads before turning the bus around for writes
system.mem_ctrls1.rdPerTurnAround::48-49            2      0.00%    100.00% # Reads before turning the bus around for writes
system.mem_ctrls1.rdPerTurnAround::50-51            1      0.00%    100.00% # Reads before turning the bus around for writes
system.mem_ctrls1.rdPerTurnAround::52-53            1      0.00%    100.00% # Reads before turning the bus around for writes
system.mem_ctrls1.rdPerTurnAround::total        71065                       # Reads before turning the bus around for writes
system.mem_ctrls1.wrPerTurnAround::samples        71065                       # Writes before turning the bus around for reads
system.mem_ctrls1.wrPerTurnAround::mean     16.324675                       # Writes before turning the bus around for reads
system.mem_ctrls1.wrPerTurnAround::gmean    16.308464                       # Writes before turning the bus around for reads
system.mem_ctrls1.wrPerTurnAround::stdev     0.748124                       # Writes before turning the bus around for reads
system.mem_ctrls1.wrPerTurnAround::16           59676     83.97%     83.97% # Writes before turning the bus around for reads
system.mem_ctrls1.wrPerTurnAround::17             102      0.14%     84.12% # Writes before turning the bus around for reads
system.mem_ctrls1.wrPerTurnAround::18           10903     15.34%     99.46% # Writes before turning the bus around for reads
system.mem_ctrls1.wrPerTurnAround::19             373      0.52%     99.98% # Writes before turning the bus around for reads
system.mem_ctrls1.wrPerTurnAround::20               9      0.01%    100.00% # Writes before turning the bus around for reads
system.mem_ctrls1.wrPerTurnAround::21               2      0.00%    100.00% # Writes before turning the bus around for reads
system.mem_ctrls1.wrPerTurnAround::total        71065                       # Writes before turning the bus around for reads
system.mem_ctrls1.totQLat                 20321249492                       # Total ticks spent queuing
system.mem_ctrls1.totMemAccLat            39399243242                       # Total ticks spent from burst creation until serviced by the DRAM
system.mem_ctrls1.totBusLat                5087465000                       # Total ticks spent in databus transfers
system.mem_ctrls1.avgQLat                    19971.88                       # Average queueing delay per DRAM burst
system.mem_ctrls1.avgBusLat                   5000.00                       # Average bus latency per DRAM burst
system.mem_ctrls1.avgMemAccLat               38721.88                       # Average memory access latency per DRAM burst
system.mem_ctrls1.avgRdBW                       15.49                       # Average DRAM read bandwidth in MiByte/s
system.mem_ctrls1.avgWrBW                       17.66                       # Average achieved write bandwidth in MiByte/s
system.mem_ctrls1.avgRdBWSys                    51.08                       # Average system read bandwidth in MiByte/s
system.mem_ctrls1.avgWrBWSys                    51.08                       # Average system write bandwidth in MiByte/s
system.mem_ctrls1.peakBW                     12800.00                       # Theoretical peak bandwidth in MiByte/s
system.mem_ctrls1.busUtil                        0.26                       # Data bus utilization in percentage
system.mem_ctrls1.busUtilRead                    0.12                       # Data bus utilization in percentage for reads
system.mem_ctrls1.busUtilWrite                   0.14                       # Data bus utilization in percentage for writes
system.mem_ctrls1.avgRdQLen                      1.00                       # Average read queue length when enqueuing
system.mem_ctrls1.avgWrQLen                     25.35                       # Average write queue length when enqueuing
system.mem_ctrls1.readRowHits                  317286                       # Number of row buffer hits during reads
system.mem_ctrls1.writeRowHits                 513133                       # Number of row buffer hits during writes
system.mem_ctrls1.readRowHitRate                31.18                       # Row buffer hit rate for reads
system.mem_ctrls1.writeRowHitRate               44.23                       # Row buffer hit rate for writes
system.mem_ctrls1.avgGap                    626455.81                       # Average gap between requests
system.mem_ctrls1.pageHitRate                   38.13                       # Row buffer hit rate, read and write combined
system.mem_ctrls1_0.actEnergy              4794627600                       # Energy for activate commands per rank (pJ)
system.mem_ctrls1_0.preEnergy              2616116250                       # Energy for precharge commands per rank (pJ)
system.mem_ctrls1_0.readEnergy             3789583200                       # Energy for read commands per rank (pJ)
system.mem_ctrls1_0.writeEnergy            3381076080                       # Energy for write commands per rank (pJ)
system.mem_ctrls1_0.refreshEnergy        274961100960                       # Energy for refresh commands per rank (pJ)
system.mem_ctrls1_0.actBackEnergy        636717586005                       # Energy for active background per rank (pJ)
system.mem_ctrls1_0.preBackEnergy        1967332343250                       # Energy for precharge background per rank (pJ)
system.mem_ctrls1_0.totalEnergy          2893592433345                       # Total energy per rank (pJ)
system.mem_ctrls1_0.averagePower           687.353154                       # Core power per rank (mW)
system.mem_ctrls1_0.memoryStateTime::IDLE 3267959826751                       # Time in different power states
system.mem_ctrls1_0.memoryStateTime::REF 140405980000                       # Time in different power states
system.mem_ctrls1_0.memoryStateTime::PRE_PDN            0                       # Time in different power states
system.mem_ctrls1_0.memoryStateTime::ACT 796389436249                       # Time in different power states
system.mem_ctrls1_0.memoryStateTime::ACT_PDN            0                       # Time in different power states
system.mem_ctrls1_1.actEnergy              5467996800                       # Energy for activate commands per rank (pJ)
system.mem_ctrls1_1.preEnergy              2983530000                       # Energy for precharge commands per rank (pJ)
system.mem_ctrls1_1.readEnergy             4224924600                       # Energy for read commands per rank (pJ)
system.mem_ctrls1_1.writeEnergy            4202273520                       # Energy for write commands per rank (pJ)
system.mem_ctrls1_1.refreshEnergy        274961100960                       # Energy for refresh commands per rank (pJ)
system.mem_ctrls1_1.actBackEnergy        673210452330                       # Energy for active background per rank (pJ)
system.mem_ctrls1_1.preBackEnergy        1935321057000                       # Energy for precharge background per rank (pJ)
system.mem_ctrls1_1.totalEnergy          2900371335210                       # Total energy per rank (pJ)
system.mem_ctrls1_1.averagePower           688.963436                       # Core power per rank (mW)
system.mem_ctrls1_1.memoryStateTime::IDLE 3214732553250                       # Time in different power states
system.mem_ctrls1_1.memoryStateTime::REF 140405980000                       # Time in different power states
system.mem_ctrls1_1.memoryStateTime::PRE_PDN            0                       # Time in different power states
system.mem_ctrls1_1.memoryStateTime::ACT 849614969750                       # Time in different power states
system.mem_ctrls1_1.memoryStateTime::ACT_PDN            0                       # Time in different power states
system.mem_ctrls2.bytes_read::ruby.dir_cntrl2     91958400                       # Number of bytes read from this memory
system.mem_ctrls2.bytes_read::total          91958400                       # Number of bytes read from this memory
system.mem_ctrls2.bytes_written::ruby.dir_cntrl2     91978304                       # Number of bytes written to this memory
system.mem_ctrls2.bytes_written::total       91978304                       # Number of bytes written to this memory
system.mem_ctrls2.num_reads::ruby.dir_cntrl2      1436850                       # Number of read requests responded to by this memory
system.mem_ctrls2.num_reads::total            1436850                       # Number of read requests responded to by this memory
system.mem_ctrls2.num_writes::ruby.dir_cntrl2      1437161                       # Number of write requests responded to by this memory
system.mem_ctrls2.num_writes::total           1437161                       # Number of write requests responded to by this memory
system.mem_ctrls2.bw_read::ruby.dir_cntrl2     21870105                       # Total read bandwidth from this memory (bytes/s)
system.mem_ctrls2.bw_read::total             21870105                       # Total read bandwidth from this memory (bytes/s)
system.mem_ctrls2.bw_write::ruby.dir_cntrl2     21874838                       # Write bandwidth from this memory (bytes/s)
system.mem_ctrls2.bw_write::total            21874838                       # Write bandwidth from this memory (bytes/s)
system.mem_ctrls2.bw_total::ruby.dir_cntrl2     43744943                       # Total bandwidth to/from this memory (bytes/s)
system.mem_ctrls2.bw_total::total            43744943                       # Total bandwidth to/from this memory (bytes/s)
system.mem_ctrls2.readReqs                    1436850                       # Number of read requests accepted
system.mem_ctrls2.writeReqs                   1437161                       # Number of write requests accepted
system.mem_ctrls2.readBursts                  1436850                       # Number of DRAM read bursts, including those serviced by the write queue
system.mem_ctrls2.writeBursts                 1437161                       # Number of DRAM write bursts, including those merged in the write queue
system.mem_ctrls2.bytesReadDRAM              62091264                       # Total number of bytes read from DRAM
system.mem_ctrls2.bytesReadWrQ               29867136                       # Total number of bytes read from write queue
system.mem_ctrls2.bytesWritten               70174848                       # Total number of bytes written to DRAM
system.mem_ctrls2.bytesReadSys               91958400                       # Total read bytes from the system interface side
system.mem_ctrls2.bytesWrittenSys            91978304                       # Total written bytes from the system interface side
system.mem_ctrls2.servicedByWrQ                466674                       # Number of DRAM read bursts serviced by the write queue
system.mem_ctrls2.mergedWrBursts               340682                       # Number of DRAM write bursts merged with an existing one
system.mem_ctrls2.neitherReadNorWriteReqs            0                       # Number of requests that are neither read nor write
system.mem_ctrls2.perBankRdBursts::0            62926                       # Per bank write bursts
system.mem_ctrls2.perBankRdBursts::1            68690                       # Per bank write bursts
system.mem_ctrls2.perBankRdBursts::2            66438                       # Per bank write bursts
system.mem_ctrls2.perBankRdBursts::3            48443                       # Per bank write bursts
system.mem_ctrls2.perBankRdBursts::4            56191                       # Per bank write bursts
system.mem_ctrls2.perBankRdBursts::5            54361                       # Per bank write bursts
system.mem_ctrls2.perBankRdBursts::6            49677                       # Per bank write bursts
system.mem_ctrls2.perBankRdBursts::7            71768                       # Per bank write bursts
system.mem_ctrls2.perBankRdBursts::8            72574                       # Per bank write bursts
system.mem_ctrls2.perBankRdBursts::9            66071                       # Per bank write bursts
system.mem_ctrls2.perBankRdBursts::10           61315                       # Per bank write bursts
system.mem_ctrls2.perBankRdBursts::11           76366                       # Per bank write bursts
system.mem_ctrls2.perBankRdBursts::12           54893                       # Per bank write bursts
system.mem_ctrls2.perBankRdBursts::13           52560                       # Per bank write bursts
system.mem_ctrls2.perBankRdBursts::14           51146                       # Per bank write bursts
system.mem_ctrls2.perBankRdBursts::15           56757                       # Per bank write bursts
system.mem_ctrls2.perBankWrBursts::0            66839                       # Per bank write bursts
system.mem_ctrls2.perBankWrBursts::1            73843                       # Per bank write bursts
system.mem_ctrls2.perBankWrBursts::2            71668                       # Per bank write bursts
system.mem_ctrls2.perBankWrBursts::3            50995                       # Per bank write bursts
system.mem_ctrls2.perBankWrBursts::4            63551                       # Per bank write bursts
system.mem_ctrls2.perBankWrBursts::5            59415                       # Per bank write bursts
system.mem_ctrls2.perBankWrBursts::6            55312                       # Per bank write bursts
system.mem_ctrls2.perBankWrBursts::7            79385                       # Per bank write bursts
system.mem_ctrls2.perBankWrBursts::8            88835                       # Per bank write bursts
system.mem_ctrls2.perBankWrBursts::9            88042                       # Per bank write bursts
system.mem_ctrls2.perBankWrBursts::10           75827                       # Per bank write bursts
system.mem_ctrls2.perBankWrBursts::11           90799                       # Per bank write bursts
system.mem_ctrls2.perBankWrBursts::12           59930                       # Per bank write bursts
system.mem_ctrls2.perBankWrBursts::13           57612                       # Per bank write bursts
system.mem_ctrls2.perBankWrBursts::14           54025                       # Per bank write bursts
system.mem_ctrls2.perBankWrBursts::15           60404                       # Per bank write bursts
system.mem_ctrls2.numRdRetry                        0                       # Number of times read queue was full causing retry
system.mem_ctrls2.numWrRetry                        0                       # Number of times write queue was full causing retry
system.mem_ctrls2.totGap                 4204753247000                       # Total gap between requests
system.mem_ctrls2.readPktSize::0                    0                       # Read request sizes (log2)
system.mem_ctrls2.readPktSize::1                    0                       # Read request sizes (log2)
system.mem_ctrls2.readPktSize::2                    0                       # Read request sizes (log2)
system.mem_ctrls2.readPktSize::3                    0                       # Read request sizes (log2)
system.mem_ctrls2.readPktSize::4                    0                       # Read request sizes (log2)
system.mem_ctrls2.readPktSize::5                    0                       # Read request sizes (log2)
system.mem_ctrls2.readPktSize::6              1436850                       # Read request sizes (log2)
system.mem_ctrls2.writePktSize::0                   0                       # Write request sizes (log2)
system.mem_ctrls2.writePktSize::1                   0                       # Write request sizes (log2)
system.mem_ctrls2.writePktSize::2                   0                       # Write request sizes (log2)
system.mem_ctrls2.writePktSize::3                   0                       # Write request sizes (log2)
system.mem_ctrls2.writePktSize::4                   0                       # Write request sizes (log2)
system.mem_ctrls2.writePktSize::5                   0                       # Write request sizes (log2)
system.mem_ctrls2.writePktSize::6             1437161                       # Write request sizes (log2)
system.mem_ctrls2.rdQLenPdf::0                 969323                       # What read queue length does an incoming req see
system.mem_ctrls2.rdQLenPdf::1                    853                       # What read queue length does an incoming req see
system.mem_ctrls2.rdQLenPdf::2                      0                       # What read queue length does an incoming req see
system.mem_ctrls2.rdQLenPdf::3                      0                       # What read queue length does an incoming req see
system.mem_ctrls2.rdQLenPdf::4                      0                       # What read queue length does an incoming req see
system.mem_ctrls2.rdQLenPdf::5                      0                       # What read queue length does an incoming req see
system.mem_ctrls2.rdQLenPdf::6                      0                       # What read queue length does an incoming req see
system.mem_ctrls2.rdQLenPdf::7                      0                       # What read queue length does an incoming req see
system.mem_ctrls2.rdQLenPdf::8                      0                       # What read queue length does an incoming req see
system.mem_ctrls2.rdQLenPdf::9                      0                       # What read queue length does an incoming req see
system.mem_ctrls2.rdQLenPdf::10                     0                       # What read queue length does an incoming req see
system.mem_ctrls2.rdQLenPdf::11                     0                       # What read queue length does an incoming req see
system.mem_ctrls2.rdQLenPdf::12                     0                       # What read queue length does an incoming req see
system.mem_ctrls2.rdQLenPdf::13                     0                       # What read queue length does an incoming req see
system.mem_ctrls2.rdQLenPdf::14                     0                       # What read queue length does an incoming req see
system.mem_ctrls2.rdQLenPdf::15                     0                       # What read queue length does an incoming req see
system.mem_ctrls2.rdQLenPdf::16                     0                       # What read queue length does an incoming req see
system.mem_ctrls2.rdQLenPdf::17                     0                       # What read queue length does an incoming req see
system.mem_ctrls2.rdQLenPdf::18                     0                       # What read queue length does an incoming req see
system.mem_ctrls2.rdQLenPdf::19                     0                       # What read queue length does an incoming req see
system.mem_ctrls2.rdQLenPdf::20                     0                       # What read queue length does an incoming req see
system.mem_ctrls2.rdQLenPdf::21                     0                       # What read queue length does an incoming req see
system.mem_ctrls2.rdQLenPdf::22                     0                       # What read queue length does an incoming req see
system.mem_ctrls2.rdQLenPdf::23                     0                       # What read queue length does an incoming req see
system.mem_ctrls2.rdQLenPdf::24                     0                       # What read queue length does an incoming req see
system.mem_ctrls2.rdQLenPdf::25                     0                       # What read queue length does an incoming req see
system.mem_ctrls2.rdQLenPdf::26                     0                       # What read queue length does an incoming req see
system.mem_ctrls2.rdQLenPdf::27                     0                       # What read queue length does an incoming req see
system.mem_ctrls2.rdQLenPdf::28                     0                       # What read queue length does an incoming req see
system.mem_ctrls2.rdQLenPdf::29                     0                       # What read queue length does an incoming req see
system.mem_ctrls2.rdQLenPdf::30                     0                       # What read queue length does an incoming req see
system.mem_ctrls2.rdQLenPdf::31                     0                       # What read queue length does an incoming req see
[...]
system.ruby.IFETCH.Directory.miss_type_mach_latency_hist_seqr::gmean    49.139952                      
system.ruby.IFETCH.Directory.miss_type_mach_latency_hist_seqr::stdev    41.846499                      
system.ruby.IFETCH.Directory.miss_type_mach_latency_hist_seqr |     4738525     97.60%     97.60% |       75520      1.56%     99.16% |       29476      0.61%     99.76% |        4378      0.09%     99.85% |        5364      0.11%     99.96% |        1431      0.03%     99.99% |         150      0.00%    100.00% |         122      0.00%    100.00% |          10      0.00%    100.00% |           0      0.00%    100.00%
system.ruby.IFETCH.Directory.miss_type_mach_latency_hist_seqr::total      4854976                      
system.ruby.RMW_Read.L1Cache.miss_type_mach_latency_hist_seqr::bucket_size            8                      
system.ruby.RMW_Read.L1Cache.miss_type_mach_latency_hist_seqr::max_bucket           79                      
system.ruby.RMW_Read.L1Cache.miss_type_mach_latency_hist_seqr::samples         3032                      
system.ruby.RMW_Read.L1Cache.miss_type_mach_latency_hist_seqr::mean    45.178430                      
system.ruby.RMW_Read.L1Cache.miss_type_mach_latency_hist_seqr::gmean    45.170157                      
system.ruby.RMW_Read.L1Cache.miss_type_mach_latency_hist_seqr::stdev     0.900616                      
system.ruby.RMW_Read.L1Cache.miss_type_mach_latency_hist_seqr |           0      0.00%      0.00% |           0      0.00%      0.00% |           0      0.00%      0.00% |           0      0.00%      0.00% |           0      0.00%      0.00% |        2924     96.44%     96.44% |         106      3.50%     99.93% |           2      0.07%    100.00% |           0      0.00%    100.00% |           0      0.00%    100.00%
system.ruby.RMW_Read.L1Cache.miss_type_mach_latency_hist_seqr::total         3032                      
system.ruby.RMW_Read.Directory.miss_type_mach_latency_hist_seqr::bucket_size          128                      
system.ruby.RMW_Read.Directory.miss_type_mach_latency_hist_seqr::max_bucket         1279                      
system.ruby.RMW_Read.Directory.miss_type_mach_latency_hist_seqr::samples        38287                      
system.ruby.RMW_Read.Directory.miss_type_mach_latency_hist_seqr::mean   137.167550                      
system.ruby.RMW_Read.Directory.miss_type_mach_latency_hist_seqr::gmean   124.440647                      
system.ruby.RMW_Read.Directory.miss_type_mach_latency_hist_seqr::stdev    79.556997                      
system.ruby.RMW_Read.Directory.miss_type_mach_latency_hist_seqr |       29719     77.62%     77.62% |        5708     14.91%     92.53% |        2062      5.39%     97.92% |         345      0.90%     98.82% |         333      0.87%     99.69% |         100      0.26%     99.95% |           6      0.02%     99.96% |          14      0.04%    100.00% |           0      0.00%    100.00% |           0      0.00%    100.00%
system.ruby.RMW_Read.Directory.miss_type_mach_latency_hist_seqr::total        38287                      
system.ruby.Locked_RMW_Read.L1Cache.miss_type_mach_latency_hist_seqr::bucket_size           16                      
system.ruby.Locked_RMW_Read.L1Cache.miss_type_mach_latency_hist_seqr::max_bucket          159                      
system.ruby.Locked_RMW_Read.L1Cache.miss_type_mach_latency_hist_seqr::samples         4401                      
system.ruby.Locked_RMW_Read.L1Cache.miss_type_mach_latency_hist_seqr::mean    45.578278                      
system.ruby.Locked_RMW_Read.L1Cache.miss_type_mach_latency_hist_seqr::gmean    45.550374                      
system.ruby.Locked_RMW_Read.L1Cache.miss_type_mach_latency_hist_seqr::stdev     1.802226                      
system.ruby.Locked_RMW_Read.L1Cache.miss_type_mach_latency_hist_seqr |           0      0.00%      0.00% |           0      0.00%      0.00% |        3807     86.50%     86.50% |         593     13.47%     99.98% |           0      0.00%     99.98% |           0      0.00%     99.98% |           0      0.00%     99.98% |           1      0.02%    100.00% |           0      0.00%    100.00% |           0      0.00%    100.00%
system.ruby.Locked_RMW_Read.L1Cache.miss_type_mach_latency_hist_seqr::total         4401                      
system.ruby.Locked_RMW_Read.Directory.miss_type_mach_latency_hist_seqr::bucket_size          128                      
system.ruby.Locked_RMW_Read.Directory.miss_type_mach_latency_hist_seqr::max_bucket         1279                      
system.ruby.Locked_RMW_Read.Directory.miss_type_mach_latency_hist_seqr::samples        22422                      
system.ruby.Locked_RMW_Read.Directory.miss_type_mach_latency_hist_seqr::mean   130.598965                      
system.ruby.Locked_RMW_Read.Directory.miss_type_mach_latency_hist_seqr::gmean   115.177592                      
system.ruby.Locked_RMW_Read.Directory.miss_type_mach_latency_hist_seqr::stdev    77.074223                      
system.ruby.Locked_RMW_Read.Directory.miss_type_mach_latency_hist_seqr |       18501     82.51%     82.51% |        2646     11.80%     94.31% |         854      3.81%     98.12% |         166      0.74%     98.86% |         198      0.88%     99.75% |          53      0.24%     99.98% |           0      0.00%     99.98% |           4      0.02%    100.00% |           0      0.00%    100.00% |           0      0.00%    100.00%
system.ruby.Locked_RMW_Read.Directory.miss_type_mach_latency_hist_seqr::total        22422                      
system.ruby.Directory_Controller.GETX    |     1952141     16.39%     16.39% |     3628725     30.47%     46.86% |     1698969     14.27%     61.13% |     4629107     38.87%    100.00%
system.ruby.Directory_Controller.GETX::total     11908942                      
system.ruby.Directory_Controller.PUTX    |     1735170     15.76%     15.76% |     3399705     30.88%     46.63% |     1480583     13.45%     60.08% |     4395454     39.92%    100.00%
system.ruby.Directory_Controller.PUTX::total     11010912                      
system.ruby.Directory_Controller.PUTX_NotOwner |           3     60.00%     60.00% |           1     20.00%     80.00% |           1     20.00%    100.00% |           0      0.00%    100.00%
system.ruby.Directory_Controller.PUTX_NotOwner::total            5                      
system.ruby.Directory_Controller.DMA_READ |          27     32.93%     32.93% |          23     28.05%     60.98% |          16     19.51%     80.49% |          16     19.51%    100.00%
system.ruby.Directory_Controller.DMA_READ::total           82                      
system.ruby.Directory_Controller.DMA_WRITE |         416     25.00%     25.00% |         416     25.00%     50.00% |         416     25.00%     75.00% |         416     25.00%    100.00%
system.ruby.Directory_Controller.DMA_WRITE::total         1664                      
system.ruby.Directory_Controller.Memory_Data |     1735267     15.76%     15.76% |     3399780     30.88%     46.63% |     1480681     13.45%     60.08% |     4395560     39.92%    100.00%
system.ruby.Directory_Controller.Memory_Data::total     11011288                      
system.ruby.Directory_Controller.Memory_Ack |     1735586     15.76%     15.76% |     3400121     30.87%     46.63% |     1480999     13.45%     60.08% |     4395870     39.92%    100.00%
system.ruby.Directory_Controller.Memory_Ack::total     11012576                      
system.ruby.Directory_Controller.I.GETX  |     1735244     15.76%     15.76% |     3399757     30.88%     46.63% |     1480665     13.45%     60.08% |     4395544     39.92%    100.00%
system.ruby.Directory_Controller.I.GETX::total     11011210                      
system.ruby.Directory_Controller.I.DMA_READ |          23     29.49%     29.49% |          23     29.49%     58.97% |          16     20.51%     79.49% |          16     20.51%    100.00%
system.ruby.Directory_Controller.I.DMA_READ::total           78                      
system.ruby.Directory_Controller.I.DMA_WRITE |         416     25.00%     25.00% |         416     25.00%     50.00% |         416     25.00%     75.00% |         416     25.00%    100.00%
system.ruby.Directory_Controller.I.DMA_WRITE::total         1664                      
system.ruby.Directory_Controller.M.GETX  |      216797     24.16%     24.16% |      228795     25.50%     49.66% |      218190     24.32%     73.98% |      233457     26.02%    100.00%
system.ruby.Directory_Controller.M.GETX::total       897239                      
system.ruby.Directory_Controller.M.PUTX  |     1735166     15.76%     15.76% |     3399705     30.88%     46.63% |     1480583     13.45%     60.08% |     4395454     39.92%    100.00%
system.ruby.Directory_Controller.M.PUTX::total     11010908                      
system.ruby.Directory_Controller.M.PUTX_NotOwner |           3     60.00%     60.00% |           1     20.00%     80.00% |           1     20.00%    100.00% |           0      0.00%    100.00%
system.ruby.Directory_Controller.M.PUTX_NotOwner::total            5                      
system.ruby.Directory_Controller.M.DMA_READ |           4    100.00%    100.00% |           0      0.00%    100.00% |           0      0.00%    100.00% |           0      0.00%    100.00%
system.ruby.Directory_Controller.M.DMA_READ::total            4                      
system.ruby.Directory_Controller.M_DRD.PUTX |           4    100.00%    100.00% |           0      0.00%    100.00% |           0      0.00%    100.00% |           0      0.00%    100.00%
system.ruby.Directory_Controller.M_DRD.PUTX::total            4                      
system.ruby.Directory_Controller.M_DRDI.Memory_Ack |           4    100.00%    100.00% |           0      0.00%    100.00% |           0      0.00%    100.00% |           0      0.00%    100.00%
system.ruby.Directory_Controller.M_DRDI.Memory_Ack::total            4                      
system.ruby.Directory_Controller.IM.GETX |          99     20.33%     20.33% |         171     35.11%     55.44% |         114     23.41%     78.85% |         103     21.15%    100.00%
system.ruby.Directory_Controller.IM.GETX::total          487                      
system.ruby.Directory_Controller.IM.Memory_Data |     1735244     15.76%     15.76% |     3399757     30.88%     46.63% |     1480665     13.45%     60.08% |     4395544     39.92%    100.00%
system.ruby.Directory_Controller.IM.Memory_Data::total     11011210                      
system.ruby.Directory_Controller.MI.GETX |           1     16.67%     16.67% |           2     33.33%     50.00% |           0      0.00%     50.00% |           3     50.00%    100.00%
system.ruby.Directory_Controller.MI.GETX::total            6                      
system.ruby.Directory_Controller.MI.Memory_Ack |     1735166     15.76%     15.76% |     3399705     30.88%     46.63% |     1480583     13.45%     60.08% |     4395454     39.92%    100.00%
system.ruby.Directory_Controller.MI.Memory_Ack::total     11010908                      
system.ruby.Directory_Controller.ID.Memory_Data |          23     29.49%     29.49% |          23     29.49%     58.97% |          16     20.51%     79.49% |          16     20.51%    100.00%
system.ruby.Directory_Controller.ID.Memory_Data::total           78                      
system.ruby.Directory_Controller.ID_W.Memory_Ack |         416     25.00%     25.00% |         416     25.00%     50.00% |         416     25.00%     75.00% |         416     25.00%    100.00%
system.ruby.Directory_Controller.ID_W.Memory_Ack::total         1664                      
system.ruby.DMA_Controller.ReadRequest   |          82    100.00%    100.00% |           0      0.00%    100.00%
system.ruby.DMA_Controller.ReadRequest::total           82                      
system.ruby.DMA_Controller.WriteRequest  |        1664    100.00%    100.00% |           0      0.00%    100.00%
system.ruby.DMA_Controller.WriteRequest::total         1664                      
system.ruby.DMA_Controller.Data          |          82    100.00%    100.00% |           0      0.00%    100.00%
system.ruby.DMA_Controller.Data::total             82                      
system.ruby.DMA_Controller.Ack           |        1664    100.00%    100.00% |           0      0.00%    100.00%
system.ruby.DMA_Controller.Ack::total            1664                      
system.ruby.DMA_Controller.READY.ReadRequest |          82    100.00%    100.00% |           0      0.00%    100.00%
system.ruby.DMA_Controller.READY.ReadRequest::total           82                      
system.ruby.DMA_Controller.READY.WriteRequest |        1664    100.00%    100.00% |           0      0.00%    100.00%
system.ruby.DMA_Controller.READY.WriteRequest::total         1664                      
system.ruby.DMA_Controller.BUSY_RD.Data  |          82    100.00%    100.00% |           0      0.00%    100.00%
system.ruby.DMA_Controller.BUSY_RD.Data::total           82                      
system.ruby.DMA_Controller.BUSY_WR.Ack   |        1664    100.00%    100.00% |           0      0.00%    100.00%
system.ruby.DMA_Controller.BUSY_WR.Ack::total         1664                      
system.ruby.L1Cache_Controller.Load      |     2084208      0.57%      0.57% |     1216067      0.33%      0.90% |   360223869     98.67%     99.57% |     1558564      0.43%    100.00%
system.ruby.L1Cache_Controller.Load::total    365082708                      
system.ruby.L1Cache_Controller.Ifetch    |    10647790      0.00%      0.00% |     5568270      0.00%      0.00% |18446744072789045248    100.00%    100.00% |     7812666      0.00%    100.00%
system.ruby.L1Cache_Controller.Ifetch::total 18446744072813074432                      
system.ruby.L1Cache_Controller.Store     |     1602611      2.72%      2.72% |      882861      1.50%      4.22% |    55267665     93.80%     98.01% |     1170684      1.99%    100.00%
system.ruby.L1Cache_Controller.Store::total     58923821                      
system.ruby.L1Cache_Controller.Data      |      402975      3.38%      3.38% |      342397      2.88%      6.26% |    10800775     90.70%     96.96% |      362302      3.04%    100.00%
system.ruby.L1Cache_Controller.Data::total     11908449                      
system.ruby.L1Cache_Controller.Fwd_GETX  |      276615     30.83%     30.83% |      270375     30.13%     60.96% |       94141     10.49%     71.46% |      256108     28.54%    100.00%
system.ruby.L1Cache_Controller.Fwd_GETX::total       897239                      
system.ruby.L1Cache_Controller.Inv       |           2     25.00%     25.00% |           0      0.00%     25.00% |           2     25.00%     50.00% |           4     50.00%    100.00%
system.ruby.L1Cache_Controller.Inv::total            8                      
system.ruby.L1Cache_Controller.Replacement |      160223      1.44%      1.44% |       96947      0.87%      2.31% |    10761831     96.52%     98.83% |      130521      1.17%    100.00%
system.ruby.L1Cache_Controller.Replacement::total     11149522                      
system.ruby.L1Cache_Controller.Writeback_Ack |      127036      1.15%      1.15% |       71197      0.65%      1.80% |    10706722     97.24%     99.04% |      105957      0.96%    100.00%
system.ruby.L1Cache_Controller.Writeback_Ack::total     11010912                      
system.ruby.L1Cache_Controller.Writeback_Nack |           0      0.00%      0.00% |           2     40.00%     40.00% |           2     40.00%     80.00% |           1     20.00%    100.00%
system.ruby.L1Cache_Controller.Writeback_Nack::total            5                      
system.ruby.L1Cache_Controller.I.Load    |      100595      1.25%      1.25% |       79083      0.99%      2.24% |     7751785     96.60%     98.84% |       93236      1.16%    100.00%
system.ruby.L1Cache_Controller.I.Load::total      8024699                      
system.ruby.L1Cache_Controller.I.Ifetch  |      273702      8.58%      8.58% |      249758      7.83%     16.40% |     2415187     75.68%     92.08% |      252740      7.92%    100.00%
system.ruby.L1Cache_Controller.I.Ifetch::total      3191387                      
system.ruby.L1Cache_Controller.I.Store   |       28678      4.14%      4.14% |       13556      1.96%      6.10% |      633803     91.54%     97.64% |       16326      2.36%    100.00%
system.ruby.L1Cache_Controller.I.Store::total       692363                      
system.ruby.L1Cache_Controller.I.Replacement |       33188     23.94%     23.94% |       25748     18.58%     42.52% |       55108     39.76%     82.28% |       24565     17.72%    100.00%
system.ruby.L1Cache_Controller.I.Replacement::total       138609                      
system.ruby.L1Cache_Controller.II.Writeback_Nack |           0      0.00%      0.00% |           2     40.00%     40.00% |           2     40.00%     80.00% |           1     20.00%    100.00%
system.ruby.L1Cache_Controller.II.Writeback_Nack::total            5                      
system.ruby.L1Cache_Controller.M.Load    |     1983613      0.56%      0.56% |     1136984      0.32%      0.87% |   352472084     98.72%     99.59% |     1465328      0.41%    100.00%
system.ruby.L1Cache_Controller.M.Load::total    357058009                      
system.ruby.L1Cache_Controller.M.Ifetch  |    10374088      0.00%      0.00% |     5318512      0.00%      0.00% |18446744072786630656    100.00%    100.00% |     7559926      0.00%    100.00%
system.ruby.L1Cache_Controller.M.Ifetch::total 18446744072809881600                      
system.ruby.L1Cache_Controller.M.Store   |     1573933      2.70%      2.70% |      869305      1.49%      4.20% |    54633862     93.82%     98.02% |     1154358      1.98%    100.00%
system.ruby.L1Cache_Controller.M.Store::total     58231458                      
system.ruby.L1Cache_Controller.M.Fwd_GETX |      276615     30.83%     30.83% |      270373     30.13%     60.96% |       94139     10.49%     71.46% |      256107     28.54%    100.00%
system.ruby.L1Cache_Controller.M.Fwd_GETX::total       897234                      
system.ruby.L1Cache_Controller.M.Inv     |           1     25.00%     25.00% |           0      0.00%     25.00% |           1     25.00%     50.00% |           2     50.00%    100.00%
system.ruby.L1Cache_Controller.M.Inv::total            4                      
system.ruby.L1Cache_Controller.M.Replacement |      127035      1.15%      1.15% |       71199      0.65%      1.80% |    10706723     97.24%     99.04% |      105956      0.96%    100.00%
system.ruby.L1Cache_Controller.M.Replacement::total     11010913                      
system.ruby.L1Cache_Controller.MI.Fwd_GETX |           0      0.00%      0.00% |           2     40.00%     40.00% |           2     40.00%     80.00% |           1     20.00%    100.00%
system.ruby.L1Cache_Controller.MI.Fwd_GETX::total            5                      
system.ruby.L1Cache_Controller.MI.Inv    |           1     25.00%     25.00% |           0      0.00%     25.00% |           1     25.00%     50.00% |           2     50.00%    100.00%
system.ruby.L1Cache_Controller.MI.Inv::total            4                      
system.ruby.L1Cache_Controller.MI.Writeback_Ack |      127036      1.15%      1.15% |       71197      0.65%      1.80% |    10706722     97.24%     99.04% |      105957      0.96%    100.00%
system.ruby.L1Cache_Controller.MI.Writeback_Ack::total     11010912                      
system.ruby.L1Cache_Controller.IS.Data   |      374297      3.34%      3.34% |      328841      2.93%      6.27% |    10166972     90.65%     96.92% |      345976      3.08%    100.00%
system.ruby.L1Cache_Controller.IS.Data::total     11216086                      
system.ruby.L1Cache_Controller.IM.Data   |       28678      4.14%      4.14% |       13556      1.96%      6.10% |      633803     91.54%     97.64% |       16326      2.36%    100.00%
system.ruby.L1Cache_Controller.IM.Data::total       692363                      

---------- End Simulation Statistics   ----------
