
---------- Begin Simulation Statistics ----------
sim_seconds                                  1.187506                       # Number of seconds simulated
sim_ticks                                1187506361000                       # Number of ticks simulated
final_tick                               53743944288001                       # Number of ticks from beginning of simulation (restored from checkpoints and never reset)
sim_freq                                 1000000000000                       # Frequency of simulated ticks
host_inst_rate                                 125882                       # Simulator instruction rate (inst/s)
host_op_rate                                   168420                       # Simulator op (including micro ops) rate (op/s)
host_tick_rate                              276063382                       # Simulator tick rate (ticks/s)
host_mem_usage                                1726780                       # Number of bytes of host memory used
host_seconds                                  4301.57                       # Real time elapsed on the host
sim_insts                                   541492475                       # Number of instructions simulated
sim_ops                                     724472617                       # Number of ops (including micro ops) simulated
system.voltage_domain.voltage                       1                       # Voltage in Volts
system.clk_domain.clock                          1000                       # Clock period in ticks
system.mem_ctrls.bytes_read::ruby.dir_cntrl0    172115456                       # Number of bytes read from this memory
system.mem_ctrls.bytes_read::total          172115456                       # Number of bytes read from this memory
system.mem_ctrls.bytes_written::ruby.dir_cntrl0    101764608                       # Number of bytes written to this memory
system.mem_ctrls.bytes_written::total       101764608                       # Number of bytes written to this memory
system.mem_ctrls.num_reads::ruby.dir_cntrl0      1344652                       # Number of read requests responded to by this memory
system.mem_ctrls.num_reads::total             1344652                       # Number of read requests responded to by this memory
system.mem_ctrls.num_writes::ruby.dir_cntrl0       795036                       # Number of write requests responded to by this memory
system.mem_ctrls.num_writes::total             795036                       # Number of write requests responded to by this memory
system.mem_ctrls.bw_read::ruby.dir_cntrl0    144938555                       # Total read bandwidth from this memory (bytes/s)
system.mem_ctrls.bw_read::total             144938555                       # Total read bandwidth from this memory (bytes/s)
system.mem_ctrls.bw_write::ruby.dir_cntrl0     85696053                       # Write bandwidth from this memory (bytes/s)
system.mem_ctrls.bw_write::total             85696053                       # Write bandwidth from this memory (bytes/s)
system.mem_ctrls.bw_total::ruby.dir_cntrl0    230634608                       # Total bandwidth to/from this memory (bytes/s)
system.mem_ctrls.bw_total::total            230634608                       # Total bandwidth to/from this memory (bytes/s)
system.mem_ctrls.readReqs                     1344652                       # Number of read requests accepted
system.mem_ctrls.writeReqs                     795036                       # Number of write requests accepted
system.mem_ctrls.readBursts                   2689304                       # Number of DRAM read bursts, including those serviced by the write queue
system.mem_ctrls.writeBursts                  1590072                       # Number of DRAM write bursts, including those merged in the write queue
system.mem_ctrls.bytesReadDRAM              172067840                       # Total number of bytes read from DRAM
system.mem_ctrls.bytesReadWrQ                   47616                       # Total number of bytes read from write queue
system.mem_ctrls.bytesWritten               101764480                       # Total number of bytes written to DRAM
system.mem_ctrls.bytesReadSys               172115456                       # Total read bytes from the system interface side
system.mem_ctrls.bytesWrittenSys            101764608                       # Total written bytes from the system interface side
system.mem_ctrls.servicedByWrQ                    744                       # Number of DRAM read bursts serviced by the write queue
system.mem_ctrls.mergedWrBursts                     0                       # Number of DRAM write bursts merged with an existing one
system.mem_ctrls.neitherReadNorWriteReqs            0                       # Number of requests that are neither read nor write
system.mem_ctrls.perBankRdBursts::0            171226                       # Per bank write bursts
system.mem_ctrls.perBankRdBursts::1            171262                       # Per bank write bursts
system.mem_ctrls.perBankRdBursts::2            164828                       # Per bank write bursts
system.mem_ctrls.perBankRdBursts::3            166659                       # Per bank write bursts
system.mem_ctrls.perBankRdBursts::4            167954                       # Per bank write bursts
system.mem_ctrls.perBankRdBursts::5            168272                       # Per bank write bursts
system.mem_ctrls.perBankRdBursts::6            172350                       # Per bank write bursts
system.mem_ctrls.perBankRdBursts::7            166790                       # Per bank write bursts
system.mem_ctrls.perBankRdBursts::8            167834                       # Per bank write bursts
system.mem_ctrls.perBankRdBursts::9            168180                       # Per bank write bursts
system.mem_ctrls.perBankRdBursts::10           166189                       # Per bank write bursts
system.mem_ctrls.perBankRdBursts::11           165868                       # Per bank write bursts
system.mem_ctrls.perBankRdBursts::12           166064                       # Per bank write bursts
system.mem_ctrls.perBankRdBursts::13           168022                       # Per bank write bursts
system.mem_ctrls.perBankRdBursts::14           167816                       # Per bank write bursts
system.mem_ctrls.perBankRdBursts::15           169246                       # Per bank write bursts
system.mem_ctrls.perBankWrBursts::0            100088                       # Per bank write bursts
system.mem_ctrls.perBankWrBursts::1            103083                       # Per bank write bursts
system.mem_ctrls.perBankWrBursts::2             97664                       # Per bank write bursts
system.mem_ctrls.perBankWrBursts::3             98059                       # Per bank write bursts
system.mem_ctrls.perBankWrBursts::4             98144                       # Per bank write bursts
system.mem_ctrls.perBankWrBursts::5            100038                       # Per bank write bursts
system.mem_ctrls.perBankWrBursts::6            102368                       # Per bank write bursts
system.mem_ctrls.perBankWrBursts::7             99206                       # Per bank write bursts
system.mem_ctrls.perBankWrBursts::8            100482                       # Per bank write bursts
system.mem_ctrls.perBankWrBursts::9             99238                       # Per bank write bursts
system.mem_ctrls.perBankWrBursts::10            98616                       # Per bank write bursts
system.mem_ctrls.perBankWrBursts::11            98548                       # Per bank write bursts
system.mem_ctrls.perBankWrBursts::12            98438                       # Per bank write bursts
system.mem_ctrls.perBankWrBursts::13            98968                       # Per bank write bursts
system.mem_ctrls.perBankWrBursts::14            98530                       # Per bank write bursts
system.mem_ctrls.perBankWrBursts::15            98600                       # Per bank write bursts
system.mem_ctrls.numRdRetry                         0                       # Number of times read queue was full causing retry
system.mem_ctrls.numWrRetry                         0                       # Number of times write queue was full causing retry
system.mem_ctrls.totGap                  1187506310000                       # Total gap between requests
system.mem_ctrls.readPktSize::0                     0                       # Read request sizes (log2)
system.mem_ctrls.readPktSize::1                     0                       # Read request sizes (log2)
system.mem_ctrls.readPktSize::2                     0                       # Read request sizes (log2)
system.mem_ctrls.readPktSize::3                     0                       # Read request sizes (log2)
system.mem_ctrls.readPktSize::4                     0                       # Read request sizes (log2)
system.mem_ctrls.readPktSize::5                     0                       # Read request sizes (log2)
system.mem_ctrls.readPktSize::6               2689304                       # Read request sizes (log2)
system.mem_ctrls.writePktSize::0                    0                       # Write request sizes (log2)
system.mem_ctrls.writePktSize::1                    0                       # Write request sizes (log2)
system.mem_ctrls.writePktSize::2                    0                       # Write request sizes (log2)
system.mem_ctrls.writePktSize::3                    0                       # Write request sizes (log2)
system.mem_ctrls.writePktSize::4                    0                       # Write request sizes (log2)
system.mem_ctrls.writePktSize::5                    0                       # Write request sizes (log2)
system.mem_ctrls.writePktSize::6              1590072                       # Write request sizes (log2)
system.mem_ctrls.rdQLenPdf::0                 1338952                       # What read queue length does an incoming req see
system.mem_ctrls.rdQLenPdf::1                 1339526                       # What read queue length does an incoming req see
system.mem_ctrls.rdQLenPdf::2                    5325                       # What read queue length does an incoming req see
system.mem_ctrls.rdQLenPdf::3                    4744                       # What read queue length does an incoming req see
system.mem_ctrls.rdQLenPdf::4                       7                       # What read queue length does an incoming req see
system.mem_ctrls.rdQLenPdf::5                       6                       # What read queue length does an incoming req see
system.mem_ctrls.rdQLenPdf::6                       0                       # What read queue length does an incoming req see
system.mem_ctrls.rdQLenPdf::7                       0                       # What read queue length does an incoming req see
system.mem_ctrls.rdQLenPdf::8                       0                       # What read queue length does an incoming req see
system.mem_ctrls.rdQLenPdf::9                       0                       # What read queue length does an incoming req see
system.mem_ctrls.rdQLenPdf::10                      0                       # What read queue length does an incoming req see
system.mem_ctrls.rdQLenPdf::11                      0                       # What read queue length does an incoming req see
system.mem_ctrls.rdQLenPdf::12                      0                       # What read queue length does an incoming req see
system.mem_ctrls.rdQLenPdf::13                      0                       # What read queue length does an incoming req see
system.mem_ctrls.rdQLenPdf::14                      0                       # What read queue length does an incoming req see
system.mem_ctrls.rdQLenPdf::15                      0                       # What read queue length does an incoming req see
system.mem_ctrls.rdQLenPdf::16                      0                       # What read queue length does an incoming req see
system.mem_ctrls.rdQLenPdf::17                      0                       # What read queue length does an incoming req see
system.mem_ctrls.rdQLenPdf::18                      0                       # What read queue length does an incoming req see
system.mem_ctrls.rdQLenPdf::19                      0                       # What read queue length does an incoming req see
system.mem_ctrls.rdQLenPdf::20                      0                       # What read queue length does an incoming req see
system.mem_ctrls.rdQLenPdf::21                      0                       # What read queue length does an incoming req see
system.mem_ctrls.rdQLenPdf::22                      0                       # What read queue length does an incoming req see
system.mem_ctrls.rdQLenPdf::23                      0                       # What read queue length does an incoming req see
system.mem_ctrls.rdQLenPdf::24                      0                       # What read queue length does an incoming req see
system.mem_ctrls.rdQLenPdf::25                      0                       # What read queue length does an incoming req see
system.mem_ctrls.rdQLenPdf::26                      0                       # What read queue length does an incoming req see
system.mem_ctrls.rdQLenPdf::27                      0                       # What read queue length does an incoming req see
system.mem_ctrls.rdQLenPdf::28                      0                       # What read queue length does an incoming req see
system.mem_ctrls.rdQLenPdf::29                      0                       # What read queue length does an incoming req see
system.mem_ctrls.rdQLenPdf::30                      0                       # What read queue length does an incoming req see
system.mem_ctrls.rdQLenPdf::31                      0                       # What read queue length does an incoming req see
system.mem_ctrls.wrQLenPdf::0                       0                       # What write queue length does an incoming req see
system.mem_ctrls.wrQLenPdf::1                       0                       # What write queue length does an incoming req see
system.mem_ctrls.wrQLenPdf::2                       0                       # What write queue length does an incoming req see
system.mem_ctrls.wrQLenPdf::3                       0                       # What write queue length does an incoming req see
system.mem_ctrls.wrQLenPdf::4                       0                       # What write queue length does an incoming req see
system.mem_ctrls.wrQLenPdf::5                       0                       # What write queue length does an incoming req see
system.mem_ctrls.wrQLenPdf::6                       0                       # What write queue length does an incoming req see
system.mem_ctrls.wrQLenPdf::7                       0                       # What write queue length does an incoming req see
system.mem_ctrls.wrQLenPdf::8                       0                       # What write queue length does an incoming req see
system.mem_ctrls.wrQLenPdf::9                       0                       # What write queue length does an incoming req see
system.mem_ctrls.wrQLenPdf::10                      0                       # What write queue length does an incoming req see
system.mem_ctrls.wrQLenPdf::11                      0                       # What write queue length does an incoming req see
system.mem_ctrls.wrQLenPdf::12                      0                       # What write queue length does an incoming req see
system.mem_ctrls.wrQLenPdf::13                      0                       # What write queue length does an incoming req see
system.mem_ctrls.wrQLenPdf::14                      0                       # What write queue length does an incoming req see
system.mem_ctrls.wrQLenPdf::15                   1611                       # What write queue length does an incoming req see
system.mem_ctrls.wrQLenPdf::16                   1754                       # What write queue length does an incoming req see
system.mem_ctrls.wrQLenPdf::17                  85435                       # What write queue length does an incoming req see
system.mem_ctrls.wrQLenPdf::18                  98175                       # What write queue length does an incoming req see
system.mem_ctrls.wrQLenPdf::19                  99114                       # What write queue length does an incoming req see
system.mem_ctrls.wrQLenPdf::20                  99316                       # What write queue length does an incoming req see
system.mem_ctrls.wrQLenPdf::21                  99350                       # What write queue length does an incoming req see
system.mem_ctrls.wrQLenPdf::22                  99345                       # What write queue length does an incoming req see
system.mem_ctrls.wrQLenPdf::23                  99340                       # What write queue length does an incoming req see
system.mem_ctrls.wrQLenPdf::24                  99348                       # What write queue length does an incoming req see
system.mem_ctrls.wrQLenPdf::25                  99345                       # What write queue length does an incoming req see
system.mem_ctrls.wrQLenPdf::26                  99348                       # What write queue length does an incoming req see
system.mem_ctrls.wrQLenPdf::27                  99351                       # What write queue length does an incoming req see
system.mem_ctrls.wrQLenPdf::28                  99311                       # What write queue length does an incoming req see
system.mem_ctrls.wrQLenPdf::29                  99277                       # What write queue length does an incoming req see
system.mem_ctrls.wrQLenPdf::30                  99268                       # What write queue length does an incoming req see
system.mem_ctrls.wrQLenPdf::31                  99176                       # What write queue length does an incoming req see
system.mem_ctrls.wrQLenPdf::32                  99162                       # What write queue length does an incoming req see
system.mem_ctrls.wrQLenPdf::33                  13034                       # What write queue length does an incoming req see
system.mem_ctrls.wrQLenPdf::34                      8                       # What write queue length does an incoming req see
system.mem_ctrls.wrQLenPdf::35                      3                       # What write queue length does an incoming req see
system.mem_ctrls.wrQLenPdf::36                      1                       # What write queue length does an incoming req see
system.mem_ctrls.wrQLenPdf::37                      0                       # What write queue length does an incoming req see
system.mem_ctrls.wrQLenPdf::38                      0                       # What write queue length does an incoming req see
system.mem_ctrls.wrQLenPdf::39                      0                       # What write queue length does an incoming req see
system.mem_ctrls.wrQLenPdf::40                      0                       # What write queue length does an incoming req see
system.mem_ctrls.wrQLenPdf::41                      0                       # What write queue length does an incoming req see
system.mem_ctrls.wrQLenPdf::42                      0                       # What write queue length does an incoming req see
system.mem_ctrls.wrQLenPdf::43                      0                       # What write queue length does an incoming req see
system.mem_ctrls.wrQLenPdf::44                      0                       # What write queue length does an incoming req see
system.mem_ctrls.wrQLenPdf::45                      0                       # What write queue length does an incoming req see
system.mem_ctrls.wrQLenPdf::46                      0                       # What write queue length does an incoming req see
system.mem_ctrls.wrQLenPdf::47                      0                       # What write queue length does an incoming req see
system.mem_ctrls.wrQLenPdf::48                      0                       # What write queue length does an incoming req see
system.mem_ctrls.wrQLenPdf::49                      0                       # What write queue length does an incoming req see
system.mem_ctrls.wrQLenPdf::50                      0                       # What write queue length does an incoming req see
system.mem_ctrls.wrQLenPdf::51                      0                       # What write queue length does an incoming req see
system.mem_ctrls.wrQLenPdf::52                      0                       # What write queue length does an incoming req see
system.mem_ctrls.wrQLenPdf::53                      0                       # What write queue length does an incoming req see
system.mem_ctrls.wrQLenPdf::54                      0                       # What write queue length does an incoming req see
system.mem_ctrls.wrQLenPdf::55                      0                       # What write queue length does an incoming req see
system.mem_ctrls.wrQLenPdf::56                      0                       # What write queue length does an incoming req see
system.mem_ctrls.wrQLenPdf::57                      0                       # What write queue length does an incoming req see
system.mem_ctrls.wrQLenPdf::58                      0                       # What write queue length does an incoming req see
system.mem_ctrls.wrQLenPdf::59                      0                       # What write queue length does an incoming req see
system.mem_ctrls.wrQLenPdf::60                      0                       # What write queue length does an incoming req see
system.mem_ctrls.wrQLenPdf::61                      0                       # What write queue length does an incoming req see
system.mem_ctrls.wrQLenPdf::62                      0                       # What write queue length does an incoming req see
system.mem_ctrls.wrQLenPdf::63                      0                       # What write queue length does an incoming req see
system.mem_ctrls.bytesPerActivate::samples      1200504                       # Bytes accessed per row activation
system.mem_ctrls.bytesPerActivate::mean    228.098599                       # Bytes accessed per row activation
system.mem_ctrls.bytesPerActivate::gmean   169.885197                       # Bytes accessed per row activation
system.mem_ctrls.bytesPerActivate::stdev   234.107854                       # Bytes accessed per row activation
system.mem_ctrls.bytesPerActivate::0-127        74279      6.19%      6.19% # Bytes accessed per row activation
system.mem_ctrls.bytesPerActivate::128-255       835815     69.62%     75.81% # Bytes accessed per row activation
system.mem_ctrls.bytesPerActivate::256-383       100289      8.35%     84.16% # Bytes accessed per row activation
system.mem_ctrls.bytesPerActivate::384-511        39619      3.30%     87.46% # Bytes accessed per row activation
system.mem_ctrls.bytesPerActivate::512-639        35218      2.93%     90.40% # Bytes accessed per row activation
system.mem_ctrls.bytesPerActivate::640-767        25722      2.14%     92.54% # Bytes accessed per row activation
system.mem_ctrls.bytesPerActivate::768-895        20232      1.69%     94.22% # Bytes accessed per row activation
system.mem_ctrls.bytesPerActivate::896-1023        17621      1.47%     95.69% # Bytes accessed per row activation
system.mem_ctrls.bytesPerActivate::1024-1151        51709      4.31%    100.00% # Bytes accessed per row activation
system.mem_ctrls.bytesPerActivate::total      1200504                       # Bytes accessed per row activation
system.mem_ctrls.rdPerTurnAround::samples        99148                       # Reads before turning the bus around for writes
system.mem_ctrls.rdPerTurnAround::mean      27.116654                       # Reads before turning the bus around for writes
system.mem_ctrls.rdPerTurnAround::gmean     24.367729                       # Reads before turning the bus around for writes
system.mem_ctrls.rdPerTurnAround::stdev     18.325594                       # Reads before turning the bus around for writes
system.mem_ctrls.rdPerTurnAround::0-15            184      0.19%      0.19% # Reads before turning the bus around for writes
system.mem_ctrls.rdPerTurnAround::16-31         70469     71.07%     71.26% # Reads before turning the bus around for writes
system.mem_ctrls.rdPerTurnAround::32-47         23144     23.34%     94.60% # Reads before turning the bus around for writes
system.mem_ctrls.rdPerTurnAround::48-63          2849      2.87%     97.48% # Reads before turning the bus around for writes
system.mem_ctrls.rdPerTurnAround::64-79          1043      1.05%     98.53% # Reads before turning the bus around for writes
system.mem_ctrls.rdPerTurnAround::80-95           366      0.37%     98.90% # Reads before turning the bus around for writes
system.mem_ctrls.rdPerTurnAround::96-111          176      0.18%     99.08% # Reads before turning the bus around for writes
system.mem_ctrls.rdPerTurnAround::112-127          116      0.12%     99.19% # Reads before turning the bus around for writes
system.mem_ctrls.rdPerTurnAround::128-143          148      0.15%     99.34% # Reads before turning the bus around for writes
system.mem_ctrls.rdPerTurnAround::144-159          174      0.18%     99.52% # Reads before turning the bus around for writes
system.mem_ctrls.rdPerTurnAround::160-175           80      0.08%     99.60% # Reads before turning the bus around for writes
system.mem_ctrls.rdPerTurnAround::176-191          138      0.14%     99.74% # Reads before turning the bus around for writes
system.mem_ctrls.rdPerTurnAround::192-207          125      0.13%     99.86% # Reads before turning the bus around for writes
system.mem_ctrls.rdPerTurnAround::208-223           73      0.07%     99.94% # Reads before turning the bus around for writes
system.mem_ctrls.rdPerTurnAround::224-239           12      0.01%     99.95% # Reads before turning the bus around for writes
system.mem_ctrls.rdPerTurnAround::240-255           10      0.01%     99.96% # Reads before turning the bus around for writes
system.mem_ctrls.rdPerTurnAround::256-271           13      0.01%     99.97% # Reads before turning the bus around for writes
system.mem_ctrls.rdPerTurnAround::272-287           18      0.02%     99.99% # Reads before turning the bus around for writes
system.mem_ctrls.rdPerTurnAround::304-319            2      0.00%     99.99% # Reads before turning the bus around for writes
system.mem_ctrls.rdPerTurnAround::368-383            1      0.00%     99.99% # Reads before turning the bus around for writes
system.mem_ctrls.rdPerTurnAround::384-399            5      0.01%    100.00% # Reads before turning the bus around for writes
system.mem_ctrls.rdPerTurnAround::400-415            1      0.00%    100.00% # Reads before turning the bus around for writes
system.mem_ctrls.rdPerTurnAround::464-479            1      0.00%    100.00% # Reads before turning the bus around for writes
system.mem_ctrls.rdPerTurnAround::total         99148                       # Reads before turning the bus around for writes
system.mem_ctrls.wrPerTurnAround::samples        99148                       # Writes before turning the bus around for reads
system.mem_ctrls.wrPerTurnAround::mean      16.037338                       # Writes before turning the bus around for reads
system.mem_ctrls.wrPerTurnAround::gmean     16.035125                       # Writes before turning the bus around for reads
system.mem_ctrls.wrPerTurnAround::stdev      0.277661                       # Writes before turning the bus around for reads
system.mem_ctrls.wrPerTurnAround::16            97320     98.16%     98.16% # Writes before turning the bus around for reads
system.mem_ctrls.wrPerTurnAround::17              117      0.12%     98.27% # Writes before turning the bus around for reads
system.mem_ctrls.wrPerTurnAround::18             1551      1.56%     99.84% # Writes before turning the bus around for reads
system.mem_ctrls.wrPerTurnAround::19              157      0.16%    100.00% # Writes before turning the bus around for reads
system.mem_ctrls.wrPerTurnAround::20                3      0.00%    100.00% # Writes before turning the bus around for reads
system.mem_ctrls.wrPerTurnAround::total         99148                       # Writes before turning the bus around for reads
system.mem_ctrls.totQLat                  93314635664                       # Total ticks spent queuing
system.mem_ctrls.totMemAccLat            143725135664                       # Total ticks spent from burst creation until serviced by the DRAM
system.mem_ctrls.totBusLat                13442800000                       # Total ticks spent in databus transfers
system.mem_ctrls.avgQLat                     34708.04                       # Average queueing delay per DRAM burst
system.mem_ctrls.avgBusLat                    5000.00                       # Average bus latency per DRAM burst
system.mem_ctrls.avgMemAccLat                53458.04                       # Average memory access latency per DRAM burst
system.mem_ctrls.avgRdBW                       144.90                       # Average DRAM read bandwidth in MiByte/s
system.mem_ctrls.avgWrBW                        85.70                       # Average achieved write bandwidth in MiByte/s
system.mem_ctrls.avgRdBWSys                    144.94                       # Average system read bandwidth in MiByte/s
system.mem_ctrls.avgWrBWSys                     85.70                       # Average system write bandwidth in MiByte/s
system.mem_ctrls.peakBW                      12800.00                       # Theoretical peak bandwidth in MiByte/s
system.mem_ctrls.busUtil                         1.80                       # Data bus utilization in percentage
system.mem_ctrls.busUtilRead                     1.13                       # Data bus utilization in percentage for reads
system.mem_ctrls.busUtilWrite                    0.67                       # Data bus utilization in percentage for writes
system.mem_ctrls.avgRdQLen                       2.00                       # Average read queue length when enqueuing
system.mem_ctrls.avgWrQLen                      26.10                       # Average write queue length when enqueuing
system.mem_ctrls.readRowHits                  2004324                       # Number of row buffer hits during reads
system.mem_ctrls.writeRowHits                 1073806                       # Number of row buffer hits during writes
system.mem_ctrls.readRowHitRate                 74.55                       # Row buffer hit rate for reads
system.mem_ctrls.writeRowHitRate                67.53                       # Row buffer hit rate for writes
system.mem_ctrls.avgGap                     554990.41                       # Average gap between requests
system.mem_ctrls.pageHitRate                    71.94                       # Row buffer hit rate, read and write combined
system.mem_ctrls_0.actEnergy               4603578840                       # Energy for activate commands per rank (pJ)
system.mem_ctrls_0.preEnergy               2511873375                       # Energy for precharge commands per rank (pJ)
system.mem_ctrls_0.readEnergy             10630690200                       # Energy for read commands per rank (pJ)
system.mem_ctrls_0.writeEnergy             5178479040                       # Energy for write commands per rank (pJ)
system.mem_ctrls_0.refreshEnergy          77981573280                       # Energy for refresh commands per rank (pJ)
system.mem_ctrls_0.actBackEnergy         211062918825                       # Energy for active background per rank (pJ)
system.mem_ctrls_0.preBackEnergy         531214046250                       # Energy for precharge background per rank (pJ)
system.mem_ctrls_0.totalEnergy           843183159810                       # Total energy per rank (pJ)
system.mem_ctrls_0.averagePower            706.225982                       # Core power per rank (mW)
system.mem_ctrls_0.memoryStateTime::IDLE 877081233250                       # Time in different power states
system.mem_ctrls_0.memoryStateTime::REF   39653380000                       # Time in different power states
system.mem_ctrls_0.memoryStateTime::PRE_PDN            0                       # Time in different power states
system.mem_ctrls_0.memoryStateTime::ACT  270771790750                       # Time in different power states
system.mem_ctrls_0.memoryStateTime::ACT_PDN            0                       # Time in different power states
system.mem_ctrls_1.actEnergy               4506984720                       # Energy for activate commands per rank (pJ)
system.mem_ctrls_1.preEnergy               2459168250                       # Energy for precharge commands per rank (pJ)
system.mem_ctrls_1.readEnergy             10554406200                       # Energy for read commands per rank (pJ)
system.mem_ctrls_1.writeEnergy             5130546480                       # Energy for write commands per rank (pJ)
system.mem_ctrls_1.refreshEnergy          77981573280                       # Energy for refresh commands per rank (pJ)
system.mem_ctrls_1.actBackEnergy         208940444595                       # Energy for active background per rank (pJ)
system.mem_ctrls_1.preBackEnergy         533075865750                       # Energy for precharge background per rank (pJ)
system.mem_ctrls_1.totalEnergy           842648989275                       # Total energy per rank (pJ)
system.mem_ctrls_1.averagePower            705.778576                       # Core power per rank (mW)
system.mem_ctrls_1.memoryStateTime::IDLE 880247052750                       # Time in different power states
system.mem_ctrls_1.memoryStateTime::REF   39653380000                       # Time in different power states
system.mem_ctrls_1.memoryStateTime::PRE_PDN            0                       # Time in different power states
system.mem_ctrls_1.memoryStateTime::ACT  267605961250                       # Time in different power states
system.mem_ctrls_1.memoryStateTime::ACT_PDN            0                       # Time in different power states
system.cpu_voltage_domain.voltage                   1                       # Voltage in Volts
system.cpu_clk_domain.clock                       500                       # Clock period in ticks
system.cpu0.apic_clk_domain.clock                8000                       # Clock period in ticks
system.cpu0.numCycles                      2374307830                       # number of cpu cycles simulated
system.cpu0.numWorkItemsStarted                     0                       # number of work items this cpu started
system.cpu0.numWorkItemsCompleted                   0                       # number of work items this cpu completed
system.cpu0.kern.inst.arm                           0                       # number of arm instructions executed
system.cpu0.kern.inst.quiesce                       0                       # number of quiesce instructions executed
system.cpu0.committedInsts                    3019899                       # Number of instructions committed
system.cpu0.committedOps                      6033167                       # Number of ops (including micro ops) committed
system.cpu0.num_int_alu_accesses              5928055                       # Number of integer alu accesses
system.cpu0.num_fp_alu_accesses                  1826                       # Number of float alu accesses
system.cpu0.num_func_calls                     158694                       # number of times a function call or return occured
system.cpu0.num_conditional_control_insts       500224                       # number of instructions that are conditional controls
system.cpu0.num_int_insts                     5928055                       # number of integer instructions
system.cpu0.num_fp_insts                         1826                       # number of float instructions
system.cpu0.num_int_register_reads           11806123                       # number of times the integer registers were read
system.cpu0.num_int_register_writes           4817786                       # number of times the integer registers were written
system.cpu0.num_fp_register_reads                3068                       # number of times the floating registers were read
system.cpu0.num_fp_register_writes               1448                       # number of times the floating registers were written
system.cpu0.num_cc_register_reads             3769291                       # number of times the CC registers were read
system.cpu0.num_cc_register_writes            2065814                       # number of times the CC registers were written
system.cpu0.num_mem_refs                      1359492                       # number of memory refs
system.cpu0.num_load_insts                     877813                       # Number of load instructions
system.cpu0.num_store_insts                    481679                       # Number of store instructions
system.cpu0.num_idle_cycles              2359736159.085650                       # Number of idle cycles
system.cpu0.num_busy_cycles              14571670.914350                       # Number of busy cycles
system.cpu0.not_idle_fraction                0.006137                       # Percentage of non-idle cycles
system.cpu0.idle_fraction                    0.993863                       # Percentage of idle cycles
system.cpu0.Branches                           687848                       # Number of branches fetched
system.cpu0.op_class::No_OpClass                39463      0.65%      0.65% # Class of executed instruction
system.cpu0.op_class::IntAlu                  4616234     76.51%     77.17% # Class of executed instruction
system.cpu0.op_class::IntMult                    4878      0.08%     77.25% # Class of executed instruction
system.cpu0.op_class::IntDiv                    11815      0.20%     77.44% # Class of executed instruction
system.cpu0.op_class::FloatAdd                   1376      0.02%     77.47% # Class of executed instruction
system.cpu0.op_class::FloatCmp                      0      0.00%     77.47% # Class of executed instruction
system.cpu0.op_class::FloatCvt                      0      0.00%     77.47% # Class of executed instruction
system.cpu0.op_class::FloatMult                     0      0.00%     77.47% # Class of executed instruction
system.cpu0.op_class::FloatDiv                      0      0.00%     77.47% # Class of executed instruction
system.cpu0.op_class::FloatSqrt                     0      0.00%     77.47% # Class of executed instruction
system.cpu0.op_class::SimdAdd                       0      0.00%     77.47% # Class of executed instruction
system.cpu0.op_class::SimdAddAcc                    0      0.00%     77.47% # Class of executed instruction
system.cpu0.op_class::SimdAlu                       0      0.00%     77.47% # Class of executed instruction
system.cpu0.op_class::SimdCmp                       0      0.00%     77.47% # Class of executed instruction
system.cpu0.op_class::SimdCvt                       0      0.00%     77.47% # Class of executed instruction
system.cpu0.op_class::SimdMisc                      0      0.00%     77.47% # Class of executed instruction
system.cpu0.op_class::SimdMult                      0      0.00%     77.47% # Class of executed instruction
system.cpu0.op_class::SimdMultAcc                   0      0.00%     77.47% # Class of executed instruction
system.cpu0.op_class::SimdShift                     0      0.00%     77.47% # Class of executed instruction
system.cpu0.op_class::SimdShiftAcc                  0      0.00%     77.47% # Class of executed instruction
system.cpu0.op_class::SimdSqrt                      0      0.00%     77.47% # Class of executed instruction
system.cpu0.op_class::SimdFloatAdd                  0      0.00%     77.47% # Class of executed instruction
system.cpu0.op_class::SimdFloatAlu                  0      0.00%     77.47% # Class of executed instruction
system.cpu0.op_class::SimdFloatCmp                  0      0.00%     77.47% # Class of executed instruction
system.cpu0.op_class::SimdFloatCvt                  0      0.00%     77.47% # Class of executed instruction
system.cpu0.op_class::SimdFloatDiv                  0      0.00%     77.47% # Class of executed instruction
system.cpu0.op_class::SimdFloatMisc                 0      0.00%     77.47% # Class of executed instruction
system.cpu0.op_class::SimdFloatMult                 0      0.00%     77.47% # Class of executed instruction
system.cpu0.op_class::SimdFloatMultAcc              0      0.00%     77.47% # Class of executed instruction
system.cpu0.op_class::SimdFloatSqrt                 0      0.00%     77.47% # Class of executed instruction
system.cpu0.op_class::MemRead                  877813     14.55%     92.02% # Class of executed instruction
system.cpu0.op_class::MemWrite                 481679      7.98%    100.00% # Class of executed instruction
system.cpu0.op_class::IprAccess                     0      0.00%    100.00% # Class of executed instruction
system.cpu0.op_class::InstPrefetch                  0      0.00%    100.00% # Class of executed instruction
system.cpu0.op_class::total                   6033258                       # Class of executed instruction
system.cpu1.apic_clk_domain.clock                8000                       # Clock period in ticks
system.cpu1.numCycles                      2377609072                       # number of cpu cycles simulated
system.cpu1.numWorkItemsStarted                     0                       # number of work items this cpu started
system.cpu1.numWorkItemsCompleted                   0                       # number of work items this cpu completed
system.cpu1.kern.inst.arm                           0                       # number of arm instructions executed
system.cpu1.kern.inst.quiesce                       0                       # number of quiesce instructions executed
system.cpu1.committedInsts                     870948                       # Number of instructions committed
system.cpu1.committedOps                      1872363                       # Number of ops (including micro ops) committed
system.cpu1.num_int_alu_accesses              1832648                       # Number of integer alu accesses
system.cpu1.num_fp_alu_accesses                    39                       # Number of float alu accesses
system.cpu1.num_func_calls                      54480                       # number of times a function call or return occured
system.cpu1.num_conditional_control_insts       125138                       # number of instructions that are conditional controls
system.cpu1.num_int_insts                     1832648                       # number of integer instructions
system.cpu1.num_fp_insts                           39                       # number of float instructions
system.cpu1.num_int_register_reads            3733920                       # number of times the integer registers were read
system.cpu1.num_int_register_writes           1512837                       # number of times the integer registers were written
system.cpu1.num_fp_register_reads                  63                       # number of times the floating registers were read
system.cpu1.num_fp_register_writes                 31                       # number of times the floating registers were written
system.cpu1.num_cc_register_reads              993007                       # number of times the CC registers were read
system.cpu1.num_cc_register_writes             543237                       # number of times the CC registers were written
system.cpu1.num_mem_refs                       452711                       # number of memory refs
system.cpu1.num_load_insts                     281540                       # Number of load instructions
system.cpu1.num_store_insts                    171171                       # Number of store instructions
system.cpu1.num_idle_cycles              2372008953.668683                       # Number of idle cycles
system.cpu1.num_busy_cycles              5600118.331317                       # Number of busy cycles
system.cpu1.not_idle_fraction                0.002355                       # Percentage of non-idle cycles
system.cpu1.idle_fraction                    0.997645                       # Percentage of idle cycles
system.cpu1.Branches                           197068                       # Number of branches fetched
system.cpu1.op_class::No_OpClass                30175      1.61%      1.61% # Class of executed instruction
system.cpu1.op_class::IntAlu                  1375712     73.47%     75.09% # Class of executed instruction
system.cpu1.op_class::IntMult                    3573      0.19%     75.28% # Class of executed instruction
system.cpu1.op_class::IntDiv                    10184      0.54%     75.82% # Class of executed instruction
system.cpu1.op_class::FloatAdd                     30      0.00%     75.82% # Class of executed instruction
system.cpu1.op_class::FloatCmp                      0      0.00%     75.82% # Class of executed instruction
system.cpu1.op_class::FloatCvt                      0      0.00%     75.82% # Class of executed instruction
system.cpu1.op_class::FloatMult                     0      0.00%     75.82% # Class of executed instruction
system.cpu1.op_class::FloatDiv                      0      0.00%     75.82% # Class of executed instruction
system.cpu1.op_class::FloatSqrt                     0      0.00%     75.82% # Class of executed instruction
system.cpu1.op_class::SimdAdd                       0      0.00%     75.82% # Class of executed instruction
system.cpu1.op_class::SimdAddAcc                    0      0.00%     75.82% # Class of executed instruction
system.cpu1.op_class::SimdAlu                       0      0.00%     75.82% # Class of executed instruction
system.cpu1.op_class::SimdCmp                       0      0.00%     75.82% # Class of executed instruction
system.cpu1.op_class::SimdCvt                       0      0.00%     75.82% # Class of executed instruction
system.cpu1.op_class::SimdMisc                      0      0.00%     75.82% # Class of executed instruction
system.cpu1.op_class::SimdMult                      0      0.00%     75.82% # Class of executed instruction
system.cpu1.op_class::SimdMultAcc                   0      0.00%     75.82% # Class of executed instruction
system.cpu1.op_class::SimdShift                     0      0.00%     75.82% # Class of executed instruction
system.cpu1.op_class::SimdShiftAcc                  0      0.00%     75.82% # Class of executed instruction
system.cpu1.op_class::SimdSqrt                      0      0.00%     75.82% # Class of executed instruction
system.cpu1.op_class::SimdFloatAdd                  0      0.00%     75.82% # Class of executed instruction
system.cpu1.op_class::SimdFloatAlu                  0      0.00%     75.82% # Class of executed instruction
system.cpu1.op_class::SimdFloatCmp                  0      0.00%     75.82% # Class of executed instruction
system.cpu1.op_class::SimdFloatCvt                  0      0.00%     75.82% # Class of executed instruction
system.cpu1.op_class::SimdFloatDiv                  0      0.00%     75.82% # Class of executed instruction
system.cpu1.op_class::SimdFloatMisc                 0      0.00%     75.82% # Class of executed instruction
system.cpu1.op_class::SimdFloatMult                 0      0.00%     75.82% # Class of executed instruction
system.cpu1.op_class::SimdFloatMultAcc              0      0.00%     75.82% # Class of executed instruction
system.cpu1.op_class::SimdFloatSqrt                 0      0.00%     75.82% # Class of executed instruction
system.cpu1.op_class::MemRead                  281540     15.04%     90.86% # Class of executed instruction
system.cpu1.op_class::MemWrite                 171171      9.14%    100.00% # Class of executed instruction
system.cpu1.op_class::IprAccess                     0      0.00%    100.00% # Class of executed instruction
system.cpu1.op_class::InstPrefetch                  0      0.00%    100.00% # Class of executed instruction
system.cpu1.op_class::total                   1872385                       # Class of executed instruction
system.cpu2.apic_clk_domain.clock                8000                       # Clock period in ticks
system.cpu2.numCycles                      2377062447                       # number of cpu cycles simulated
system.cpu2.numWorkItemsStarted                     0                       # number of work items this cpu started
system.cpu2.numWorkItemsCompleted                   0                       # number of work items this cpu completed
system.cpu2.kern.inst.arm                           0                       # number of arm instructions executed
system.cpu2.kern.inst.quiesce                       0                       # number of quiesce instructions executed
system.cpu2.committedInsts                  533862926                       # Number of instructions committed
system.cpu2.committedOps                    709194696                       # Number of ops (including micro ops) committed
system.cpu2.num_int_alu_accesses            508817306                       # Number of integer alu accesses
system.cpu2.num_fp_alu_accesses             331101068                       # Number of float alu accesses
system.cpu2.num_func_calls                     433211                       # number of times a function call or return occured
system.cpu2.num_conditional_control_insts     31468020                       # number of instructions that are conditional controls
system.cpu2.num_int_insts                   508817306                       # number of integer instructions
system.cpu2.num_fp_insts                    331101068                       # number of float instructions
system.cpu2.num_int_register_reads         1070144781                       # number of times the integer registers were read
system.cpu2.num_int_register_writes         339854111                       # number of times the integer registers were written
system.cpu2.num_fp_register_reads           564014582                       # number of times the floating registers were read
system.cpu2.num_fp_register_writes          276695748                       # number of times the floating registers were written
system.cpu2.num_cc_register_reads           220295008                       # number of times the CC registers were read
system.cpu2.num_cc_register_writes          241363855                       # number of times the CC registers were written
system.cpu2.num_mem_refs                    152842670                       # number of memory refs
system.cpu2.num_load_insts                   94764024                       # Number of load instructions
system.cpu2.num_store_insts                  58078646                       # Number of store instructions
system.cpu2.num_idle_cycles              9577982.027634                       # Number of idle cycles
system.cpu2.num_busy_cycles              2367484464.972366                       # Number of busy cycles
system.cpu2.not_idle_fraction                0.995971                       # Percentage of non-idle cycles
system.cpu2.idle_fraction                    0.004029                       # Percentage of idle cycles
system.cpu2.Branches                         33880619                       # Number of branches fetched
system.cpu2.op_class::No_OpClass               955314      0.13%      0.13% # Class of executed instruction
system.cpu2.op_class::IntAlu                444085269     62.62%     62.75% # Class of executed instruction
system.cpu2.op_class::IntMult                   24538      0.00%     62.76% # Class of executed instruction
system.cpu2.op_class::IntDiv                   145476      0.02%     62.78% # Class of executed instruction
system.cpu2.op_class::FloatAdd              111149730     15.67%     78.45% # Class of executed instruction
system.cpu2.op_class::FloatCmp                      0      0.00%     78.45% # Class of executed instruction
system.cpu2.op_class::FloatCvt                      0      0.00%     78.45% # Class of executed instruction
system.cpu2.op_class::FloatMult                     0      0.00%     78.45% # Class of executed instruction
system.cpu2.op_class::FloatDiv                      0      0.00%     78.45% # Class of executed instruction
system.cpu2.op_class::FloatSqrt                     0      0.00%     78.45% # Class of executed instruction
system.cpu2.op_class::SimdAdd                       0      0.00%     78.45% # Class of executed instruction
system.cpu2.op_class::SimdAddAcc                    0      0.00%     78.45% # Class of executed instruction
system.cpu2.op_class::SimdAlu                       0      0.00%     78.45% # Class of executed instruction
system.cpu2.op_class::SimdCmp                       0      0.00%     78.45% # Class of executed instruction
system.cpu2.op_class::SimdCvt                       0      0.00%     78.45% # Class of executed instruction
system.cpu2.op_class::SimdMisc                      0      0.00%     78.45% # Class of executed instruction
system.cpu2.op_class::SimdMult                      0      0.00%     78.45% # Class of executed instruction
system.cpu2.op_class::SimdMultAcc                   0      0.00%     78.45% # Class of executed instruction
system.cpu2.op_class::SimdShift                     0      0.00%     78.45% # Class of executed instruction
system.cpu2.op_class::SimdShiftAcc                  0      0.00%     78.45% # Class of executed instruction
system.cpu2.op_class::SimdSqrt                      0      0.00%     78.45% # Class of executed instruction
system.cpu2.op_class::SimdFloatAdd                  0      0.00%     78.45% # Class of executed instruction
system.cpu2.op_class::SimdFloatAlu                  0      0.00%     78.45% # Class of executed instruction
system.cpu2.op_class::SimdFloatCmp                  0      0.00%     78.45% # Class of executed instruction
system.cpu2.op_class::SimdFloatCvt                  0      0.00%     78.45% # Class of executed instruction
system.cpu2.op_class::SimdFloatDiv                  0      0.00%     78.45% # Class of executed instruction
system.cpu2.op_class::SimdFloatMisc                 0      0.00%     78.45% # Class of executed instruction
system.cpu2.op_class::SimdFloatMult                 0      0.00%     78.45% # Class of executed instruction
system.cpu2.op_class::SimdFloatMultAcc              0      0.00%     78.45% # Class of executed instruction
system.cpu2.op_class::SimdFloatSqrt                 0      0.00%     78.45% # Class of executed instruction
system.cpu2.op_class::MemRead                94764024     13.36%     91.81% # Class of executed instruction
system.cpu2.op_class::MemWrite               58078646      8.19%    100.00% # Class of executed instruction
system.cpu2.op_class::IprAccess                     0      0.00%    100.00% # Class of executed instruction
system.cpu2.op_class::InstPrefetch                  0      0.00%    100.00% # Class of executed instruction
system.cpu2.op_class::total                 709202997                       # Class of executed instruction
system.cpu3.apic_clk_domain.clock                8000                       # Clock period in ticks
system.cpu3.numCycles                      2375708404                       # number of cpu cycles simulated
system.cpu3.numWorkItemsStarted                     0                       # number of work items this cpu started
system.cpu3.numWorkItemsCompleted                   0                       # number of work items this cpu completed
system.cpu3.kern.inst.arm                           0                       # number of arm instructions executed
system.cpu3.kern.inst.quiesce                       0                       # number of quiesce instructions executed
system.cpu3.committedInsts                     910768                       # Number of instructions committed
system.cpu3.committedOps                      1955274                       # Number of ops (including micro ops) committed
system.cpu3.num_int_alu_accesses              1908671                       # Number of integer alu accesses
system.cpu3.num_fp_alu_accesses                     0                       # Number of float alu accesses
system.cpu3.num_func_calls                      53028                       # number of times a function call or return occured
system.cpu3.num_conditional_control_insts       140850                       # number of instructions that are conditional controls
system.cpu3.num_int_insts                     1908671                       # number of integer instructions
system.cpu3.num_fp_insts                            0                       # number of float instructions
system.cpu3.num_int_register_reads            3877578                       # number of times the integer registers were read
system.cpu3.num_int_register_writes           1583457                       # number of times the integer registers were written
system.cpu3.num_fp_register_reads                   0                       # number of times the floating registers were read
system.cpu3.num_fp_register_writes                  0                       # number of times the floating registers were written
system.cpu3.num_cc_register_reads             1103314                       # number of times the CC registers were read
system.cpu3.num_cc_register_writes             576224                       # number of times the CC registers were written
system.cpu3.num_mem_refs                       462708                       # number of memory refs
system.cpu3.num_load_insts                     289760                       # Number of load instructions
system.cpu3.num_store_insts                    172948                       # Number of store instructions
system.cpu3.num_idle_cycles              2370171047.488187                       # Number of idle cycles
system.cpu3.num_busy_cycles              5537356.511813                       # Number of busy cycles
system.cpu3.not_idle_fraction                0.002331                       # Percentage of non-idle cycles
system.cpu3.idle_fraction                    0.997669                       # Percentage of idle cycles
system.cpu3.Branches                           211182                       # Number of branches fetched
system.cpu3.op_class::No_OpClass                35545      1.82%      1.82% # Class of executed instruction
system.cpu3.op_class::IntAlu                  1439718     73.63%     75.45% # Class of executed instruction
system.cpu3.op_class::IntMult                    4524      0.23%     75.68% # Class of executed instruction
system.cpu3.op_class::IntDiv                    12782      0.65%     76.34% # Class of executed instruction
system.cpu3.op_class::FloatAdd                      0      0.00%     76.34% # Class of executed instruction
system.cpu3.op_class::FloatCmp                      0      0.00%     76.34% # Class of executed instruction
system.cpu3.op_class::FloatCvt                      0      0.00%     76.34% # Class of executed instruction
system.cpu3.op_class::FloatMult                     0      0.00%     76.34% # Class of executed instruction
system.cpu3.op_class::FloatDiv                      0      0.00%     76.34% # Class of executed instruction
system.cpu3.op_class::FloatSqrt                     0      0.00%     76.34% # Class of executed instruction
system.cpu3.op_class::SimdAdd                       0      0.00%     76.34% # Class of executed instruction
system.cpu3.op_class::SimdAddAcc                    0      0.00%     76.34% # Class of executed instruction
system.cpu3.op_class::SimdAlu                       0      0.00%     76.34% # Class of executed instruction
system.cpu3.op_class::SimdCmp                       0      0.00%     76.34% # Class of executed instruction
system.cpu3.op_class::SimdCvt                       0      0.00%     76.34% # Class of executed instruction
system.cpu3.op_class::SimdMisc                      0      0.00%     76.34% # Class of executed instruction
system.cpu3.op_class::SimdMult                      0      0.00%     76.34% # Class of executed instruction
system.cpu3.op_class::SimdMultAcc                   0      0.00%     76.34% # Class of executed instruction
system.cpu3.op_class::SimdShift                     0      0.00%     76.34% # Class of executed instruction
system.cpu3.op_class::SimdShiftAcc                  0      0.00%     76.34% # Class of executed instruction
system.cpu3.op_class::SimdSqrt                      0      0.00%     76.34% # Class of executed instruction
system.cpu3.op_class::SimdFloatAdd                  0      0.00%     76.34% # Class of executed instruction
system.cpu3.op_class::SimdFloatAlu                  0      0.00%     76.34% # Class of executed instruction
system.cpu3.op_class::SimdFloatCmp                  0      0.00%     76.34% # Class of executed instruction
system.cpu3.op_class::SimdFloatCvt                  0      0.00%     76.34% # Class of executed instruction
system.cpu3.op_class::SimdFloatDiv                  0      0.00%     76.34% # Class of executed instruction
system.cpu3.op_class::SimdFloatMisc                 0      0.00%     76.34% # Class of executed instruction
system.cpu3.op_class::SimdFloatMult                 0      0.00%     76.34% # Class of executed instruction
system.cpu3.op_class::SimdFloatMultAcc              0      0.00%     76.34% # Class of executed instruction
system.cpu3.op_class::SimdFloatSqrt                 0      0.00%     76.34% # Class of executed instruction
system.cpu3.op_class::MemRead                  289760     14.82%     91.15% # Class of executed instruction
system.cpu3.op_class::MemWrite                 172948      8.85%    100.00% # Class of executed instruction
system.cpu3.op_class::IprAccess                     0      0.00%    100.00% # Class of executed instruction
system.cpu3.op_class::InstPrefetch                  0      0.00%    100.00% # Class of executed instruction
system.cpu3.op_class::total                   1955277                       # Class of executed instruction
system.iobus.trans_dist::ReadReq                  710                       # Transaction distribution
system.iobus.trans_dist::ReadResp                 710                       # Transaction distribution
system.iobus.trans_dist::WriteReq                1457                       # Transaction distribution
system.iobus.trans_dist::WriteResp               1457                       # Transaction distribution
system.iobus.trans_dist::MessageReq                12                       # Transaction distribution
system.iobus.trans_dist::MessageResp               12                       # Transaction distribution
system.iobus.pkt_count_system.pc.south_bridge.io_apic.int_master::system.ruby.l0_cntrl0.sequencer.pio-slave-port            2                       # Packet count per connected master and slave (bytes)
system.iobus.pkt_count_system.pc.south_bridge.io_apic.int_master::system.ruby.l0_cntrl1.sequencer.pio-slave-port            2                       # Packet count per connected master and slave (bytes)
system.iobus.pkt_count_system.pc.south_bridge.io_apic.int_master::system.ruby.l0_cntrl2.sequencer.pio-slave-port            2                       # Packet count per connected master and slave (bytes)
system.iobus.pkt_count_system.pc.south_bridge.io_apic.int_master::system.ruby.l0_cntrl3.sequencer.pio-slave-port            2                       # Packet count per connected master and slave (bytes)
system.iobus.pkt_count_system.pc.south_bridge.io_apic.int_master::total            8                       # Packet count per connected master and slave (bytes)
system.iobus.pkt_count_system.ruby.l0_cntrl0.sequencer.mem-master-port::system.pc.south_bridge.io_apic.pio            8                       # Packet count per connected master and slave (bytes)
system.iobus.pkt_count_system.ruby.l0_cntrl0.sequencer.mem-master-port::system.ruby.l0_cntrl0.sequencer.pio-slave-port          616                       # Packet count per connected master and slave (bytes)
system.iobus.pkt_count_system.ruby.l0_cntrl0.sequencer.mem-master-port::system.ruby.l0_cntrl1.sequencer.pio-slave-port            2                       # Packet count per connected master and slave (bytes)
system.iobus.pkt_count_system.ruby.l0_cntrl0.sequencer.mem-master-port::system.ruby.l0_cntrl2.sequencer.pio-slave-port            2                       # Packet count per connected master and slave (bytes)
system.iobus.pkt_count_system.ruby.l0_cntrl0.sequencer.mem-master-port::system.ruby.l0_cntrl3.sequencer.pio-slave-port            2                       # Packet count per connected master and slave (bytes)
system.iobus.pkt_count_system.ruby.l0_cntrl0.sequencer.mem-master-port::total          630                       # Packet count per connected master and slave (bytes)
system.iobus.pkt_count_system.ruby.l0_cntrl1.sequencer.mem-master-port::system.pc.south_bridge.io_apic.pio            6                       # Packet count per connected master and slave (bytes)
system.iobus.pkt_count_system.ruby.l0_cntrl1.sequencer.mem-master-port::system.pc.com_1.pio         1854                       # Packet count per connected master and slave (bytes)
system.iobus.pkt_count_system.ruby.l0_cntrl1.sequencer.mem-master-port::system.ruby.l0_cntrl1.sequencer.pio-slave-port          606                       # Packet count per connected master and slave (bytes)
system.iobus.pkt_count_system.ruby.l0_cntrl1.sequencer.mem-master-port::system.ruby.l0_cntrl2.sequencer.pio-slave-port            2                       # Packet count per connected master and slave (bytes)
system.iobus.pkt_count_system.ruby.l0_cntrl1.sequencer.mem-master-port::total         2468                       # Packet count per connected master and slave (bytes)
system.iobus.pkt_count_system.ruby.l0_cntrl2.sequencer.mem-master-port::system.pc.south_bridge.io_apic.pio            8                       # Packet count per connected master and slave (bytes)
system.iobus.pkt_count_system.ruby.l0_cntrl2.sequencer.mem-master-port::system.ruby.l0_cntrl1.sequencer.pio-slave-port            2                       # Packet count per connected master and slave (bytes)
system.iobus.pkt_count_system.ruby.l0_cntrl2.sequencer.mem-master-port::system.ruby.l0_cntrl2.sequencer.pio-slave-port          618                       # Packet count per connected master and slave (bytes)
system.iobus.pkt_count_system.ruby.l0_cntrl2.sequencer.mem-master-port::system.ruby.l0_cntrl3.sequencer.pio-slave-port            4                       # Packet count per connected master and slave (bytes)
system.iobus.pkt_count_system.ruby.l0_cntrl2.sequencer.mem-master-port::total          632                       # Packet count per connected master and slave (bytes)
system.iobus.pkt_count_system.ruby.l0_cntrl3.sequencer.mem-master-port::system.pc.south_bridge.io_apic.pio            8                       # Packet count per connected master and slave (bytes)
system.iobus.pkt_count_system.ruby.l0_cntrl3.sequencer.mem-master-port::system.pc.com_1.pio            2                       # Packet count per connected master and slave (bytes)
system.iobus.pkt_count_system.ruby.l0_cntrl3.sequencer.mem-master-port::system.ruby.l0_cntrl0.sequencer.pio-slave-port            2                       # Packet count per connected master and slave (bytes)
system.iobus.pkt_count_system.ruby.l0_cntrl3.sequencer.mem-master-port::system.ruby.l0_cntrl3.sequencer.pio-slave-port          608                       # Packet count per connected master and slave (bytes)
system.iobus.pkt_count_system.ruby.l0_cntrl3.sequencer.mem-master-port::total          620                       # Packet count per connected master and slave (bytes)
system.iobus.pkt_count::total                    4358                       # Packet count per connected master and slave (bytes)
system.iobus.pkt_size_system.pc.south_bridge.io_apic.int_master::system.ruby.l0_cntrl0.sequencer.pio-slave-port            4                       # Cumulative packet size per connected master and slave (bytes)
system.iobus.pkt_size_system.pc.south_bridge.io_apic.int_master::system.ruby.l0_cntrl1.sequencer.pio-slave-port            4                       # Cumulative packet size per connected master and slave (bytes)
system.iobus.pkt_size_system.pc.south_bridge.io_apic.int_master::system.ruby.l0_cntrl2.sequencer.pio-slave-port            4                       # Cumulative packet size per connected master and slave (bytes)
system.iobus.pkt_size_system.pc.south_bridge.io_apic.int_master::system.ruby.l0_cntrl3.sequencer.pio-slave-port            4                       # Cumulative packet size per connected master and slave (bytes)
system.iobus.pkt_size_system.pc.south_bridge.io_apic.int_master::total           16                       # Cumulative packet size per connected master and slave (bytes)
system.iobus.pkt_size_system.ruby.l0_cntrl0.sequencer.mem-master-port::system.pc.south_bridge.io_apic.pio           16                       # Cumulative packet size per connected master and slave (bytes)
system.iobus.pkt_size_system.ruby.l0_cntrl0.sequencer.mem-master-port::system.ruby.l0_cntrl0.sequencer.pio-slave-port         1232                       # Cumulative packet size per connected master and slave (bytes)
system.iobus.pkt_size_system.ruby.l0_cntrl0.sequencer.mem-master-port::system.ruby.l0_cntrl1.sequencer.pio-slave-port            4                       # Cumulative packet size per connected master and slave (bytes)
system.iobus.pkt_size_system.ruby.l0_cntrl0.sequencer.mem-master-port::system.ruby.l0_cntrl2.sequencer.pio-slave-port            4                       # Cumulative packet size per connected master and slave (bytes)
system.iobus.pkt_size_system.ruby.l0_cntrl0.sequencer.mem-master-port::system.ruby.l0_cntrl3.sequencer.pio-slave-port            4                       # Cumulative packet size per connected master and slave (bytes)
system.iobus.pkt_size_system.ruby.l0_cntrl0.sequencer.mem-master-port::total         1260                       # Cumulative packet size per connected master and slave (bytes)
system.iobus.pkt_size_system.ruby.l0_cntrl1.sequencer.mem-master-port::system.pc.south_bridge.io_apic.pio           12                       # Cumulative packet size per connected master and slave (bytes)
system.iobus.pkt_size_system.ruby.l0_cntrl1.sequencer.mem-master-port::system.pc.com_1.pio          927                       # Cumulative packet size per connected master and slave (bytes)
system.iobus.pkt_size_system.ruby.l0_cntrl1.sequencer.mem-master-port::system.ruby.l0_cntrl1.sequencer.pio-slave-port         1212                       # Cumulative packet size per connected master and slave (bytes)
system.iobus.pkt_size_system.ruby.l0_cntrl1.sequencer.mem-master-port::system.ruby.l0_cntrl2.sequencer.pio-slave-port            4                       # Cumulative packet size per connected master and slave (bytes)
system.iobus.pkt_size_system.ruby.l0_cntrl1.sequencer.mem-master-port::total         2155                       # Cumulative packet size per connected master and slave (bytes)
system.iobus.pkt_size_system.ruby.l0_cntrl2.sequencer.mem-master-port::system.pc.south_bridge.io_apic.pio           16                       # Cumulative packet size per connected master and slave (bytes)
system.iobus.pkt_size_system.ruby.l0_cntrl2.sequencer.mem-master-port::system.ruby.l0_cntrl1.sequencer.pio-slave-port            4                       # Cumulative packet size per connected master and slave (bytes)
system.iobus.pkt_size_system.ruby.l0_cntrl2.sequencer.mem-master-port::system.ruby.l0_cntrl2.sequencer.pio-slave-port         1236                       # Cumulative packet size per connected master and slave (bytes)
system.iobus.pkt_size_system.ruby.l0_cntrl2.sequencer.mem-master-port::system.ruby.l0_cntrl3.sequencer.pio-slave-port            8                       # Cumulative packet size per connected master and slave (bytes)
system.iobus.pkt_size_system.ruby.l0_cntrl2.sequencer.mem-master-port::total         1264                       # Cumulative packet size per connected master and slave (bytes)
system.iobus.pkt_size_system.ruby.l0_cntrl3.sequencer.mem-master-port::system.pc.south_bridge.io_apic.pio           16                       # Cumulative packet size per connected master and slave (bytes)
system.iobus.pkt_size_system.ruby.l0_cntrl3.sequencer.mem-master-port::system.pc.com_1.pio            1                       # Cumulative packet size per connected master and slave (bytes)
system.iobus.pkt_size_system.ruby.l0_cntrl3.sequencer.mem-master-port::system.ruby.l0_cntrl0.sequencer.pio-slave-port            4                       # Cumulative packet size per connected master and slave (bytes)
system.iobus.pkt_size_system.ruby.l0_cntrl3.sequencer.mem-master-port::system.ruby.l0_cntrl3.sequencer.pio-slave-port         1216                       # Cumulative packet size per connected master and slave (bytes)
system.iobus.pkt_size_system.ruby.l0_cntrl3.sequencer.mem-master-port::total         1237                       # Cumulative packet size per connected master and slave (bytes)
system.iobus.pkt_size::total                     5932                       # Cumulative packet size per connected master and slave (bytes)
system.iobus.reqLayer8.occupancy                26496                       # Layer occupancy (ticks)
system.iobus.reqLayer8.utilization                0.0                       # Layer utilization (%)
system.iobus.reqLayer12.occupancy             1200500                       # Layer occupancy (ticks)
system.iobus.reqLayer12.utilization               0.0                       # Layer utilization (%)
system.iobus.reqLayer17.occupancy              713498                       # Layer occupancy (ticks)
system.iobus.reqLayer17.utilization               0.0                       # Layer utilization (%)
system.iobus.reqLayer18.occupancy              715000                       # Layer occupancy (ticks)
system.iobus.reqLayer18.utilization               0.0                       # Layer utilization (%)
system.iobus.reqLayer19.occupancy              812783                       # Layer occupancy (ticks)
system.iobus.reqLayer19.utilization               0.0                       # Layer utilization (%)
system.iobus.reqLayer20.occupancy              715000                       # Layer occupancy (ticks)
system.iobus.reqLayer20.utilization               0.0                       # Layer utilization (%)
system.iobus.respLayer0.occupancy                5000                       # Layer occupancy (ticks)
system.iobus.respLayer0.utilization               0.0                       # Layer utilization (%)
system.iobus.respLayer2.occupancy              474000                       # Layer occupancy (ticks)
system.iobus.respLayer2.utilization               0.0                       # Layer utilization (%)
system.iobus.respLayer4.occupancy             2082500                       # Layer occupancy (ticks)
system.iobus.respLayer4.utilization               0.0                       # Layer utilization (%)
system.iobus.respLayer6.occupancy              475500                       # Layer occupancy (ticks)
system.iobus.respLayer6.utilization               0.0                       # Layer utilization (%)
system.iobus.respLayer8.occupancy              465000                       # Layer occupancy (ticks)
system.iobus.respLayer8.utilization               0.0                       # Layer utilization (%)
system.pc.south_bridge.ide.disks.dma_read_full_pages            0                       # Number of full page size DMA reads (not PRD).
system.pc.south_bridge.ide.disks.dma_read_bytes            0                       # Number of bytes transfered via DMA reads (not PRD).
system.pc.south_bridge.ide.disks.dma_read_txs            0                       # Number of DMA read transactions (not PRD).
system.pc.south_bridge.ide.disks.dma_write_full_pages            0                       # Number of full page size DMA writes.
system.pc.south_bridge.ide.disks.dma_write_bytes            0                       # Number of bytes transfered via DMA writes.
system.pc.south_bridge.ide.disks.dma_write_txs            0                       # Number of DMA write transactions.
system.ruby.clk_domain.clock                      500                       # Clock period in ticks
system.ruby.delayHist::bucket_size                  8                       # delay histogram for all message
system.ruby.delayHist::max_bucket                  79                       # delay histogram for all message
system.ruby.delayHist::samples               70962946                       # delay histogram for all message
system.ruby.delayHist::mean                  1.056563                       # delay histogram for all message
system.ruby.delayHist::stdev                 3.974785                       # delay histogram for all message
system.ruby.delayHist                    |    66280234     93.40%     93.40% |        7158      0.01%     93.41% |     4673110      6.59%    100.00% |         751      0.00%    100.00% |        1673      0.00%    100.00% |           9      0.00%    100.00% |          11      0.00%    100.00% |           0      0.00%    100.00% |           0      0.00%    100.00% |           0      0.00%    100.00% # delay histogram for all message
system.ruby.delayHist::total                 70962946                       # delay histogram for all message
system.ruby.outstanding_req_hist_seqr::bucket_size            1                      
system.ruby.outstanding_req_hist_seqr::max_bucket            9                      
system.ruby.outstanding_req_hist_seqr::samples    936428451                      
system.ruby.outstanding_req_hist_seqr::mean     1.000000                      
system.ruby.outstanding_req_hist_seqr::gmean     1.000000                      
system.ruby.outstanding_req_hist_seqr::stdev     0.000196                      
system.ruby.outstanding_req_hist_seqr    |           0      0.00%      0.00% |   936428415    100.00%    100.00% |          36      0.00%    100.00% |           0      0.00%    100.00% |           0      0.00%    100.00% |           0      0.00%    100.00% |           0      0.00%    100.00% |           0      0.00%    100.00% |           0      0.00%    100.00% |           0      0.00%    100.00%
system.ruby.outstanding_req_hist_seqr::total    936428451                      
system.ruby.latency_hist_seqr::bucket_size          256                      
system.ruby.latency_hist_seqr::max_bucket         2559                      
system.ruby.latency_hist_seqr::samples      936428451                      
system.ruby.latency_hist_seqr::mean          1.552980                      
system.ruby.latency_hist_seqr::gmean         1.076128                      
system.ruby.latency_hist_seqr::stdev         9.725037                      
system.ruby.latency_hist_seqr            |   936300110     99.99%     99.99% |       57989      0.01%     99.99% |       49213      0.01%    100.00% |       10091      0.00%    100.00% |        7858      0.00%    100.00% |        2373      0.00%    100.00% |         395      0.00%    100.00% |         422      0.00%    100.00% |           0      0.00%    100.00% |           0      0.00%    100.00%
system.ruby.latency_hist_seqr::total        936428451                      
system.ruby.hit_latency_hist_seqr::bucket_size            1                      
system.ruby.hit_latency_hist_seqr::max_bucket            9                      
system.ruby.hit_latency_hist_seqr::samples    902475212                      
system.ruby.hit_latency_hist_seqr::mean             1                      
[...]
system.ruby.L1Cache_Controller.Ack_all   |        3040     46.45%     46.45% |        1148     17.54%     63.99% |        1317     20.12%     84.11% |        1040     15.89%    100.00%
system.ruby.L1Cache_Controller.Ack_all::total         6545                      
system.ruby.L1Cache_Controller.WB_Ack    |      111352      1.63%      1.63% |       34234      0.50%      2.14% |     6656016     97.63%     99.76% |       16059      0.24%    100.00%
system.ruby.L1Cache_Controller.WB_Ack::total      6817661                      
system.ruby.L1Cache_Controller.I.Load    |      127537      3.46%      3.46% |       53980      1.46%      4.92% |     3466998     94.06%     98.99% |       37241      1.01%    100.00%
system.ruby.L1Cache_Controller.I.Load::total      3685756                      
system.ruby.L1Cache_Controller.I.Store   |       27829      0.82%      0.82% |       11170      0.33%      1.15% |     3349863     98.66%     99.81% |        6408      0.19%    100.00%
system.ruby.L1Cache_Controller.I.Store::total      3395270                      
system.ruby.L1Cache_Controller.I.Inv     |        2058     19.95%     19.95% |        1926     18.67%     38.62% |        4595     44.54%     83.16% |        1737     16.84%    100.00%
system.ruby.L1Cache_Controller.I.Inv::total        10316                      
system.ruby.L1Cache_Controller.S.Load    |      158389     28.21%     28.21% |       80341     14.31%     42.51% |      254044     45.24%     87.75% |       68776     12.25%    100.00%
system.ruby.L1Cache_Controller.S.Load::total       561550                      
system.ruby.L1Cache_Controller.S.Store   |        2056     43.46%     43.46% |         997     21.07%     64.53% |         923     19.51%     84.04% |         755     15.96%    100.00%
system.ruby.L1Cache_Controller.S.Store::total         4731                      
system.ruby.L1Cache_Controller.S.L0_Invalidate_Own |       31138     13.91%     13.91% |       18944      8.46%     22.38% |      158496     70.81%     93.19% |       15247      6.81%    100.00%
system.ruby.L1Cache_Controller.S.L0_Invalidate_Own::total       223825                      
system.ruby.L1Cache_Controller.S.L0_Invalidate_Else |        5137     31.26%     31.26% |        4869     29.63%     60.89% |         474      2.88%     63.77% |        5953     36.23%    100.00%
system.ruby.L1Cache_Controller.S.L0_Invalidate_Else::total        16433                      
system.ruby.L1Cache_Controller.SS.Load   |        1120     21.65%     21.65% |        2609     50.43%     72.09% |         204      3.94%     76.03% |        1240     23.97%    100.00%
system.ruby.L1Cache_Controller.SS.Load::total         5173                      
system.ruby.L1Cache_Controller.SS.Store  |         476     77.65%     77.65% |          83     13.54%     91.19% |          15      2.45%     93.64% |          39      6.36%    100.00%
system.ruby.L1Cache_Controller.SS.Store::total          613                      
system.ruby.L1Cache_Controller.SS.Inv    |        6213     28.34%     28.34% |        7421     33.85%     62.18% |        1006      4.59%     66.77% |        7285     33.23%    100.00%
system.ruby.L1Cache_Controller.SS.Inv::total        21925                      
system.ruby.L1Cache_Controller.SS.L1_Replacement |       31603     13.98%     13.98% |       19603      8.67%     22.66% |      159224     70.45%     93.10% |       15585      6.90%    100.00%
system.ruby.L1Cache_Controller.SS.L1_Replacement::total       226015                      
system.ruby.L1Cache_Controller.E.WriteBack |       88147      2.62%      2.62% |       30111      0.90%      3.52% |     3224544     96.01%     99.53% |       15691      0.47%    100.00%
system.ruby.L1Cache_Controller.E.WriteBack::total      3358493                      
system.ruby.L1Cache_Controller.E.L0_Invalidate_Own |        1721      2.03%      2.03% |         327      0.39%      2.41% |       82731     97.50%     99.92% |          70      0.08%    100.00%
system.ruby.L1Cache_Controller.E.L0_Invalidate_Own::total        84849                      
system.ruby.L1Cache_Controller.E.L0_Invalidate_Else |         397     15.77%     15.77% |        1261     50.08%     65.85% |          65      2.58%     68.43% |         795     31.57%    100.00%
system.ruby.L1Cache_Controller.E.L0_Invalidate_Else::total         2518                      
system.ruby.L1Cache_Controller.EE.Inv    |         255     32.04%     32.04% |         247     31.03%     63.07% |           4      0.50%     63.57% |         290     36.43%    100.00%
system.ruby.L1Cache_Controller.EE.Inv::total          796                      
system.ruby.L1Cache_Controller.EE.L1_Replacement |        1623      1.92%      1.92% |         291      0.34%      2.26% |       82682     97.67%     99.93% |          60      0.07%    100.00%
system.ruby.L1Cache_Controller.EE.L1_Replacement::total        84656                      
system.ruby.L1Cache_Controller.EE.Fwd_GETX |           1     12.50%     12.50% |           2     25.00%     37.50% |           3     37.50%     75.00% |           2     25.00%    100.00%
system.ruby.L1Cache_Controller.EE.Fwd_GETX::total            8                      
system.ruby.L1Cache_Controller.EE.Fwd_GETS |          70      5.00%      5.00% |         932     66.62%     71.62% |          44      3.15%     74.77% |         353     25.23%    100.00%
system.ruby.L1Cache_Controller.EE.Fwd_GETS::total         1399                      
system.ruby.L1Cache_Controller.M.WriteBack |      401227      1.32%      1.32% |      160667      0.53%      1.84% |    29889975     97.97%     99.81% |       58860      0.19%    100.00%
system.ruby.L1Cache_Controller.M.WriteBack::total     30510729                      
system.ruby.L1Cache_Controller.M.L0_Invalidate_Own |        2553      9.10%      9.10% |        1251      4.46%     13.55% |       23560     83.94%     97.50% |         702      2.50%    100.00%
system.ruby.L1Cache_Controller.M.L0_Invalidate_Own::total        28066                      
system.ruby.L1Cache_Controller.M.L0_Invalidate_Else |        2442     33.83%     33.83% |        2211     30.63%     64.46% |         577      7.99%     72.46% |        1988     27.54%    100.00%
system.ruby.L1Cache_Controller.M.L0_Invalidate_Else::total         7218                      
system.ruby.L1Cache_Controller.MM.Load   |      265153      1.43%      1.43% |      117607      0.63%      2.06% |    18177384     97.74%     99.80% |       37249      0.20%    100.00%
system.ruby.L1Cache_Controller.MM.Load::total     18597393                      
system.ruby.L1Cache_Controller.MM.Store  |      110694      1.29%      1.29% |       34275      0.40%      1.70% |     8385936     98.10%     99.80% |       17092      0.20%    100.00%
system.ruby.L1Cache_Controller.MM.Store::total      8547997                      
system.ruby.L1Cache_Controller.MM.Inv    |        5021     41.16%     41.16% |        2972     24.36%     65.53% |         152      1.25%     66.77% |        4053     33.23%    100.00%
system.ruby.L1Cache_Controller.MM.Inv::total        12198                      
system.ruby.L1Cache_Controller.MM.L1_Replacement |      109729      1.63%      1.63% |       33943      0.50%      2.13% |     6573334     97.63%     99.76% |       15999      0.24%    100.00%
system.ruby.L1Cache_Controller.MM.L1_Replacement::total      6733005                      
system.ruby.L1Cache_Controller.MM.Fwd_GETX |         986     40.05%     40.05% |         648     26.32%     66.37% |         378     15.35%     81.72% |         450     18.28%    100.00%
system.ruby.L1Cache_Controller.MM.Fwd_GETX::total         2462                      
system.ruby.L1Cache_Controller.MM.Fwd_GETS |        3097     25.90%     25.90% |        4885     40.85%     66.76% |        1376     11.51%     78.26% |        2599     21.74%    100.00%
system.ruby.L1Cache_Controller.MM.Fwd_GETS::total        11957                      
system.ruby.L1Cache_Controller.IS.Data_Exclusive |       90250      2.62%      2.62% |       31700      0.92%      3.54% |     3307347     95.98%     99.52% |       16550      0.48%    100.00%
system.ruby.L1Cache_Controller.IS.Data_Exclusive::total      3445847                      
system.ruby.L1Cache_Controller.IS.DataS_fromL1 |        3659     27.39%     27.39% |        2931     21.94%     49.34% |        3479     26.05%     75.38% |        3288     24.62%    100.00%
system.ruby.L1Cache_Controller.IS.DataS_fromL1::total        13357                      
system.ruby.L1Cache_Controller.IS.Data_all_Acks |       33628     14.84%     14.84% |       19349      8.54%     23.38% |      156172     68.93%     92.32% |       17403      7.68%    100.00%
system.ruby.L1Cache_Controller.IS.Data_all_Acks::total       226552                      
system.ruby.L1Cache_Controller.IM.Data   |         509     42.21%     42.21% |          70      5.80%     48.01% |         380     31.51%     79.52% |         247     20.48%    100.00%
system.ruby.L1Cache_Controller.IM.Data::total         1206                      
system.ruby.L1Cache_Controller.IM.Data_all_Acks |       27321      0.80%      0.80% |       11102      0.33%      1.13% |     3349484     98.69%     99.82% |        6162      0.18%    100.00%
system.ruby.L1Cache_Controller.IM.Data_all_Acks::total      3394069                      
system.ruby.L1Cache_Controller.IM.Ack    |           4     80.00%     80.00% |           0      0.00%     80.00% |           1     20.00%    100.00% |           0      0.00%    100.00%
system.ruby.L1Cache_Controller.IM.Ack::total            5                      
system.ruby.L1Cache_Controller.SM.Inv    |           1     20.00%     20.00% |           2     40.00%     60.00% |           1     20.00%     80.00% |           1     20.00%    100.00%
system.ruby.L1Cache_Controller.SM.Inv::total            5                      
system.ruby.L1Cache_Controller.SM.Ack    |        5559     54.97%     54.97% |        1368     13.53%     68.50% |        1913     18.92%     87.41% |        1273     12.59%    100.00%
system.ruby.L1Cache_Controller.SM.Ack::total        10113                      
system.ruby.L1Cache_Controller.SM.Ack_all |        3040     46.45%     46.45% |        1148     17.54%     63.99% |        1317     20.12%     84.11% |        1040     15.89%    100.00%
system.ruby.L1Cache_Controller.SM.Ack_all::total         6545                      
system.ruby.L1Cache_Controller.M_I.Fwd_GETS |           0      0.00%      0.00% |           0      0.00%      0.00% |           0      0.00%      0.00% |           1    100.00%    100.00%
system.ruby.L1Cache_Controller.M_I.Fwd_GETS::total            1                      
system.ruby.L1Cache_Controller.M_I.WB_Ack |      111352      1.63%      1.63% |       34234      0.50%      2.14% |     6656016     97.63%     99.76% |       16058      0.24%    100.00%
system.ruby.L1Cache_Controller.M_I.WB_Ack::total      6817660                      
system.ruby.L1Cache_Controller.SINK_WB_ACK.WB_Ack |           0      0.00%      0.00% |           0      0.00%      0.00% |           0      0.00%      0.00% |           1    100.00%    100.00%
system.ruby.L1Cache_Controller.SINK_WB_ACK.WB_Ack::total            1                      
system.ruby.L1Cache_Controller.S_IL0.Load |           0      0.00%      0.00% |           0      0.00%      0.00% |           1    100.00%    100.00% |           0      0.00%    100.00%
system.ruby.L1Cache_Controller.S_IL0.Load::total            1                      
system.ruby.L1Cache_Controller.S_IL0.Store |           0      0.00%      0.00% |           0      0.00%      0.00% |           1    100.00%    100.00% |           0      0.00%    100.00%
system.ruby.L1Cache_Controller.S_IL0.Store::total            1                      
system.ruby.L1Cache_Controller.S_IL0.L0_Invalidate_Own |       31138     13.91%     13.91% |       18944      8.46%     22.38% |      158496     70.81%     93.19% |       15247      6.81%    100.00%
system.ruby.L1Cache_Controller.S_IL0.L0_Invalidate_Own::total       223825                      
system.ruby.L1Cache_Controller.S_IL0.L0_Invalidate_Else |        5137     31.26%     31.26% |        4869     29.63%     60.89% |         474      2.88%     63.77% |        5953     36.23%    100.00%
system.ruby.L1Cache_Controller.S_IL0.L0_Invalidate_Else::total        16433                      
system.ruby.L1Cache_Controller.S_IL0.L0_Ack |       36275     15.10%     15.10% |       23813      9.91%     25.01% |      158970     66.17%     91.18% |       21200      8.82%    100.00%
system.ruby.L1Cache_Controller.S_IL0.L0_Ack::total       240258                      
system.ruby.L1Cache_Controller.E_IL0.L0_DataAck |         169     33.27%     33.27% |         116     22.83%     56.10% |          63     12.40%     68.50% |         160     31.50%    100.00%
system.ruby.L1Cache_Controller.E_IL0.L0_DataAck::total          508                      
system.ruby.L1Cache_Controller.E_IL0.L0_Invalidate_Own |        1721      2.03%      2.03% |         327      0.39%      2.41% |       82731     97.50%     99.92% |          70      0.08%    100.00%
system.ruby.L1Cache_Controller.E_IL0.L0_Invalidate_Own::total        84849                      
system.ruby.L1Cache_Controller.E_IL0.L0_Invalidate_Else |         397     15.77%     15.77% |        1261     50.08%     65.85% |          65      2.58%     68.43% |         795     31.57%    100.00%
system.ruby.L1Cache_Controller.E_IL0.L0_Invalidate_Else::total         2518                      
system.ruby.L1Cache_Controller.E_IL0.L0_Ack |        1949      2.24%      2.24% |        1472      1.69%      3.94% |       82733     95.25%     99.19% |         705      0.81%    100.00%
system.ruby.L1Cache_Controller.E_IL0.L0_Ack::total        86859                      
system.ruby.L1Cache_Controller.M_IL0.L0_DataAck |        2806     25.24%     25.24% |        2059     18.52%     43.77% |        4557     40.99%     84.76% |        1694     15.24%    100.00%
system.ruby.L1Cache_Controller.M_IL0.L0_DataAck::total        11116                      
system.ruby.L1Cache_Controller.M_IL0.L0_Invalidate_Own |        2553      9.10%      9.10% |        1251      4.46%     13.55% |       23560     83.94%     97.50% |         702      2.50%    100.00%
system.ruby.L1Cache_Controller.M_IL0.L0_Invalidate_Own::total        28066                      
system.ruby.L1Cache_Controller.M_IL0.L0_Invalidate_Else |        2442     33.83%     33.83% |        2211     30.63%     64.46% |         577      7.99%     72.46% |        1988     27.54%    100.00%
system.ruby.L1Cache_Controller.M_IL0.L0_Invalidate_Else::total         7218                      
system.ruby.L1Cache_Controller.M_IL0.L0_Ack |        2189      9.06%      9.06% |        1403      5.81%     14.86% |       19580     81.02%     95.88% |         996      4.12%    100.00%
system.ruby.L1Cache_Controller.M_IL0.L0_Ack::total        24168                      
system.ruby.L2Cache_Controller.L1_GETS        3685866      0.00%      0.00%
system.ruby.L2Cache_Controller.L1_GETX        3395281      0.00%      0.00%
system.ruby.L2Cache_Controller.L1_UPGRADE         5344      0.00%      0.00%
system.ruby.L2Cache_Controller.L1_PUTX        6817662      0.00%      0.00%
system.ruby.L2Cache_Controller.L2_Replacement       806160      0.00%      0.00%
system.ruby.L2Cache_Controller.L2_Replacement_clean       561326      0.00%      0.00%
system.ruby.L2Cache_Controller.Mem_Data       1370709      0.00%      0.00%
system.ruby.L2Cache_Controller.Mem_Ack        1367488      0.00%      0.00%
system.ruby.L2Cache_Controller.WB_Data          11550      0.00%      0.00%
system.ruby.L2Cache_Controller.WB_Data_clean        14005      0.00%      0.00%
system.ruby.L2Cache_Controller.Ack              14457      0.00%      0.00%
system.ruby.L2Cache_Controller.Ack_all           7261      0.00%      0.00%
system.ruby.L2Cache_Controller.Unblock          13357      0.00%      0.00%
system.ruby.L2Cache_Controller.Exclusive_Unblock      6846460      0.00%      0.00%
system.ruby.L2Cache_Controller.MEM_Inv              4      0.00%      0.00%
system.ruby.L2Cache_Controller.NP.L1_GETS       839264      0.00%      0.00%
system.ruby.L2Cache_Controller.NP.L1_GETX       531445      0.00%      0.00%
system.ruby.L2Cache_Controller.SS.L1_GETS       226548      0.00%      0.00%
system.ruby.L2Cache_Controller.SS.L1_GETX         1207      0.00%      0.00%
system.ruby.L2Cache_Controller.SS.L1_UPGRADE         5339      0.00%      0.00%
system.ruby.L2Cache_Controller.SS.L1_PUTX            1      0.00%      0.00%
system.ruby.L2Cache_Controller.SS.L2_Replacement          311      0.00%      0.00%
system.ruby.L2Cache_Controller.SS.L2_Replacement_clean         6154      0.00%      0.00%
system.ruby.L2Cache_Controller.M.L1_GETS      2606585      0.00%      0.00%
system.ruby.L2Cache_Controller.M.L1_GETX      2860153      0.00%      0.00%
system.ruby.L2Cache_Controller.M.L2_Replacement       804758      0.00%      0.00%
system.ruby.L2Cache_Controller.M.L2_Replacement_clean       543271      0.00%      0.00%
system.ruby.L2Cache_Controller.MT.L1_GETS        13357      0.00%      0.00%
system.ruby.L2Cache_Controller.MT.L1_GETX         2470      0.00%      0.00%
system.ruby.L2Cache_Controller.MT.L1_PUTX      6817660      0.00%      0.00%
system.ruby.L2Cache_Controller.MT.L2_Replacement         1091      0.00%      0.00%
system.ruby.L2Cache_Controller.MT.L2_Replacement_clean        11901      0.00%      0.00%
system.ruby.L2Cache_Controller.MT.MEM_Inv            2      0.00%      0.00%
system.ruby.L2Cache_Controller.M_I.Mem_Ack      1367488      0.00%      0.00%
system.ruby.L2Cache_Controller.MT_I.WB_Data          893      0.00%      0.00%
system.ruby.L2Cache_Controller.MT_I.WB_Data_clean          173      0.00%      0.00%
system.ruby.L2Cache_Controller.MT_I.Ack_all           27      0.00%      0.00%
system.ruby.L2Cache_Controller.MT_I.MEM_Inv            2      0.00%      0.00%
system.ruby.L2Cache_Controller.MCT_I.WB_Data         5870      0.00%      0.00%
system.ruby.L2Cache_Controller.MCT_I.WB_Data_clean         5262      0.00%      0.00%
system.ruby.L2Cache_Controller.MCT_I.Ack_all          769      0.00%      0.00%
system.ruby.L2Cache_Controller.I_I.Ack          14072      0.00%      0.00%
system.ruby.L2Cache_Controller.I_I.Ack_all         6154      0.00%      0.00%
system.ruby.L2Cache_Controller.S_I.Ack            385      0.00%      0.00%
system.ruby.L2Cache_Controller.S_I.Ack_all          311      0.00%      0.00%
system.ruby.L2Cache_Controller.ISS.L1_GETS            2      0.00%      0.00%
system.ruby.L2Cache_Controller.ISS.Mem_Data       839262      0.00%      0.00%
system.ruby.L2Cache_Controller.IS.Mem_Data            2      0.00%      0.00%
system.ruby.L2Cache_Controller.IM.Mem_Data       531445      0.00%      0.00%
system.ruby.L2Cache_Controller.SS_MB.L1_GETS           99      0.00%      0.00%
system.ruby.L2Cache_Controller.SS_MB.L1_GETX            2      0.00%      0.00%
system.ruby.L2Cache_Controller.SS_MB.L1_UPGRADE            5      0.00%      0.00%
system.ruby.L2Cache_Controller.SS_MB.Exclusive_Unblock         6546      0.00%      0.00%
system.ruby.L2Cache_Controller.MT_MB.L1_GETS            4      0.00%      0.00%
system.ruby.L2Cache_Controller.MT_MB.L1_GETX            2      0.00%      0.00%
system.ruby.L2Cache_Controller.MT_MB.Exclusive_Unblock      6839914      0.00%      0.00%
system.ruby.L2Cache_Controller.MT_IIB.L1_GETS            7      0.00%      0.00%
system.ruby.L2Cache_Controller.MT_IIB.L1_GETX            2      0.00%      0.00%
system.ruby.L2Cache_Controller.MT_IIB.L1_PUTX            1      0.00%      0.00%
system.ruby.L2Cache_Controller.MT_IIB.Unblock        13357      0.00%      0.00%
system.ruby.L2Cache_Controller.MT_IB.WB_Data         4787      0.00%      0.00%
system.ruby.L2Cache_Controller.MT_IB.WB_Data_clean         8570      0.00%      0.00%

---------- End Simulation Statistics   ----------
