
---------- Begin Simulation Statistics ----------
sim_seconds                                  1.298394                       # Number of seconds simulated
sim_ticks                                1298394342000                       # Number of ticks simulated
final_tick                               53855595347001                       # Number of ticks from beginning of simulation (restored from checkpoints and never reset)
sim_freq                                 1000000000000                       # Frequency of simulated ticks
host_inst_rate                                 119179                       # Simulator instruction rate (inst/s)
host_op_rate                                   159501                       # Simulator op (including micro ops) rate (op/s)
host_tick_rate                              285629960                       # Simulator tick rate (ticks/s)
host_mem_usage                                1805624                       # Number of bytes of host memory used
host_seconds                                  4545.72                       # Real time elapsed on the host
sim_insts                                   541755121                       # Number of instructions simulated
sim_ops                                     725045979                       # Number of ops (including micro ops) simulated
system.voltage_domain.voltage                       1                       # Voltage in Volts
system.clk_domain.clock                          1000                       # Clock period in ticks
system.mem_ctrls.bytes_read::ruby.dir_cntrl0    189076352                       # Number of bytes read from this memory
system.mem_ctrls.bytes_read::total          189076352                       # Number of bytes read from this memory
system.mem_ctrls.bytes_written::ruby.dir_cntrl0    119116416                       # Number of bytes written to this memory
system.mem_ctrls.bytes_written::total       119116416                       # Number of bytes written to this memory
system.mem_ctrls.num_reads::ruby.dir_cntrl0      2954318                       # Number of read requests responded to by this memory
system.mem_ctrls.num_reads::total             2954318                       # Number of read requests responded to by this memory
system.mem_ctrls.num_writes::ruby.dir_cntrl0      1861194                       # Number of write requests responded to by this memory
system.mem_ctrls.num_writes::total            1861194                       # Number of write requests responded to by this memory
system.mem_ctrls.bw_read::ruby.dir_cntrl0    145623210                       # Total read bandwidth from this memory (bytes/s)
system.mem_ctrls.bw_read::total             145623210                       # Total read bandwidth from this memory (bytes/s)
system.mem_ctrls.bw_write::ruby.dir_cntrl0     91741324                       # Write bandwidth from this memory (bytes/s)
system.mem_ctrls.bw_write::total             91741324                       # Write bandwidth from this memory (bytes/s)
system.mem_ctrls.bw_total::ruby.dir_cntrl0    237364534                       # Total bandwidth to/from this memory (bytes/s)
system.mem_ctrls.bw_total::total            237364534                       # Total bandwidth to/from this memory (bytes/s)
system.mem_ctrls.readReqs                     2954318                       # Number of read requests accepted
system.mem_ctrls.writeReqs                    1861194                       # Number of write requests accepted
system.mem_ctrls.readBursts                   2954318                       # Number of DRAM read bursts, including those serviced by the write queue
system.mem_ctrls.writeBursts                  1861194                       # Number of DRAM write bursts, including those merged in the write queue
system.mem_ctrls.bytesReadDRAM              186949440                       # Total number of bytes read from DRAM
system.mem_ctrls.bytesReadWrQ                 2126912                       # Total number of bytes read from write queue
system.mem_ctrls.bytesWritten               119088896                       # Total number of bytes written to DRAM
system.mem_ctrls.bytesReadSys               189076352                       # Total read bytes from the system interface side
system.mem_ctrls.bytesWrittenSys            119116416                       # Total written bytes from the system interface side
system.mem_ctrls.servicedByWrQ                  33233                       # Number of DRAM read bursts serviced by the write queue
system.mem_ctrls.mergedWrBursts                   427                       # Number of DRAM write bursts merged with an existing one
system.mem_ctrls.neitherReadNorWriteReqs            0                       # Number of requests that are neither read nor write
system.mem_ctrls.perBankRdBursts::0            185134                       # Per bank write bursts
system.mem_ctrls.perBankRdBursts::1            190242                       # Per bank write bursts
system.mem_ctrls.perBankRdBursts::2            177776                       # Per bank write bursts
system.mem_ctrls.perBankRdBursts::3            177340                       # Per bank write bursts
system.mem_ctrls.perBankRdBursts::4            182232                       # Per bank write bursts
system.mem_ctrls.perBankRdBursts::5            185846                       # Per bank write bursts
system.mem_ctrls.perBankRdBursts::6            186088                       # Per bank write bursts
system.mem_ctrls.perBankRdBursts::7            180310                       # Per bank write bursts
system.mem_ctrls.perBankRdBursts::8            182815                       # Per bank write bursts
system.mem_ctrls.perBankRdBursts::9            181289                       # Per bank write bursts
system.mem_ctrls.perBankRdBursts::10           181822                       # Per bank write bursts
system.mem_ctrls.perBankRdBursts::11           180638                       # Per bank write bursts
system.mem_ctrls.perBankRdBursts::12           177286                       # Per bank write bursts
system.mem_ctrls.perBankRdBursts::13           184326                       # Per bank write bursts
system.mem_ctrls.perBankRdBursts::14           185169                       # Per bank write bursts
system.mem_ctrls.perBankRdBursts::15           182772                       # Per bank write bursts
system.mem_ctrls.perBankWrBursts::0            115576                       # Per bank write bursts
system.mem_ctrls.perBankWrBursts::1            126207                       # Per bank write bursts
system.mem_ctrls.perBankWrBursts::2            112345                       # Per bank write bursts
system.mem_ctrls.perBankWrBursts::3            111303                       # Per bank write bursts
system.mem_ctrls.perBankWrBursts::4            114653                       # Per bank write bursts
system.mem_ctrls.perBankWrBursts::5            120874                       # Per bank write bursts
system.mem_ctrls.perBankWrBursts::6            118939                       # Per bank write bursts
system.mem_ctrls.perBankWrBursts::7            114295                       # Per bank write bursts
system.mem_ctrls.perBankWrBursts::8            116122                       # Per bank write bursts
system.mem_ctrls.perBankWrBursts::9            114048                       # Per bank write bursts
system.mem_ctrls.perBankWrBursts::10           116994                       # Per bank write bursts
system.mem_ctrls.perBankWrBursts::11           116403                       # Per bank write bursts
system.mem_ctrls.perBankWrBursts::12           112930                       # Per bank write bursts
system.mem_ctrls.perBankWrBursts::13           118367                       # Per bank write bursts
system.mem_ctrls.perBankWrBursts::14           118804                       # Per bank write bursts
system.mem_ctrls.perBankWrBursts::15           112904                       # Per bank write bursts
system.mem_ctrls.numRdRetry                         0                       # Number of times read queue was full causing retry
system.mem_ctrls.numWrRetry                         0                       # Number of times write queue was full causing retry
system.mem_ctrls.totGap                  1298394189000                       # Total gap between requests
system.mem_ctrls.readPktSize::0                     0                       # Read request sizes (log2)
system.mem_ctrls.readPktSize::1                     0                       # Read request sizes (log2)
system.mem_ctrls.readPktSize::2                     0                       # Read request sizes (log2)
system.mem_ctrls.readPktSize::3                     0                       # Read request sizes (log2)
system.mem_ctrls.readPktSize::4                     0                       # Read request sizes (log2)
system.mem_ctrls.readPktSize::5                     0                       # Read request sizes (log2)
system.mem_ctrls.readPktSize::6               2954318                       # Read request sizes (log2)
system.mem_ctrls.writePktSize::0                    0                       # Write request sizes (log2)
system.mem_ctrls.writePktSize::1                    0                       # Write request sizes (log2)
system.mem_ctrls.writePktSize::2                    0                       # Write request sizes (log2)
system.mem_ctrls.writePktSize::3                    0                       # Write request sizes (log2)
system.mem_ctrls.writePktSize::4                    0                       # Write request sizes (log2)
system.mem_ctrls.writePktSize::5                    0                       # Write request sizes (log2)
system.mem_ctrls.writePktSize::6              1861194                       # Write request sizes (log2)
system.mem_ctrls.rdQLenPdf::0                 2909595                       # What read queue length does an incoming req see
system.mem_ctrls.rdQLenPdf::1                   11485                       # What read queue length does an incoming req see
system.mem_ctrls.rdQLenPdf::2                       5                       # What read queue length does an incoming req see
system.mem_ctrls.rdQLenPdf::3                       0                       # What read queue length does an incoming req see
system.mem_ctrls.rdQLenPdf::4                       0                       # What read queue length does an incoming req see
system.mem_ctrls.rdQLenPdf::5                       0                       # What read queue length does an incoming req see
system.mem_ctrls.rdQLenPdf::6                       0                       # What read queue length does an incoming req see
system.mem_ctrls.rdQLenPdf::7                       0                       # What read queue length does an incoming req see
system.mem_ctrls.rdQLenPdf::8                       0                       # What read queue length does an incoming req see
system.mem_ctrls.rdQLenPdf::9                       0                       # What read queue length does an incoming req see
system.mem_ctrls.rdQLenPdf::10                      0                       # What read queue length does an incoming req see
system.mem_ctrls.rdQLenPdf::11                      0                       # What read queue length does an incoming req see
system.mem_ctrls.rdQLenPdf::12                      0                       # What read queue length does an incoming req see
system.mem_ctrls.rdQLenPdf::13                      0                       # What read queue length does an incoming req see
system.mem_ctrls.rdQLenPdf::14                      0                       # What read queue length does an incoming req see
system.mem_ctrls.rdQLenPdf::15                      0                       # What read queue length does an incoming req see
system.mem_ctrls.rdQLenPdf::16                      0                       # What read queue length does an incoming req see
system.mem_ctrls.rdQLenPdf::17                      0                       # What read queue length does an incoming req see
system.mem_ctrls.rdQLenPdf::18                      0                       # What read queue length does an incoming req see
system.mem_ctrls.rdQLenPdf::19                      0                       # What read queue length does an incoming req see
system.mem_ctrls.rdQLenPdf::20                      0                       # What read queue length does an incoming req see
system.mem_ctrls.rdQLenPdf::21                      0                       # What read queue length does an incoming req see
system.mem_ctrls.rdQLenPdf::22                      0                       # What read queue length does an incoming req see
system.mem_ctrls.rdQLenPdf::23                      0                       # What read queue length does an incoming req see
system.mem_ctrls.rdQLenPdf::24                      0                       # What read queue length does an incoming req see
system.mem_ctrls.rdQLenPdf::25                      0                       # What read queue length does an incoming req see
system.mem_ctrls.rdQLenPdf::26                      0                       # What read queue length does an incoming req see
system.mem_ctrls.rdQLenPdf::27                      0                       # What read queue length does an incoming req see
system.mem_ctrls.rdQLenPdf::28                      0                       # What read queue length does an incoming req see
system.mem_ctrls.rdQLenPdf::29                      0                       # What read queue length does an incoming req see
system.mem_ctrls.rdQLenPdf::30                      0                       # What read queue length does an incoming req see
system.mem_ctrls.rdQLenPdf::31                      0                       # What read queue length does an incoming req see
system.mem_ctrls.wrQLenPdf::0                       0                       # What write queue length does an incoming req see
system.mem_ctrls.wrQLenPdf::1                       0                       # What write queue length does an incoming req see
system.mem_ctrls.wrQLenPdf::2                       0                       # What write queue length does an incoming req see
system.mem_ctrls.wrQLenPdf::3                       0                       # What write queue length does an incoming req see
system.mem_ctrls.wrQLenPdf::4                       0                       # What write queue length does an incoming req see
system.mem_ctrls.wrQLenPdf::5                       0                       # What write queue length does an incoming req see
system.mem_ctrls.wrQLenPdf::6                       0                       # What write queue length does an incoming req see
system.mem_ctrls.wrQLenPdf::7                       0                       # What write queue length does an incoming req see
system.mem_ctrls.wrQLenPdf::8                       0                       # What write queue length does an incoming req see
system.mem_ctrls.wrQLenPdf::9                       0                       # What write queue length does an incoming req see
system.mem_ctrls.wrQLenPdf::10                      0                       # What write queue length does an incoming req see
system.mem_ctrls.wrQLenPdf::11                      0                       # What write queue length does an incoming req see
system.mem_ctrls.wrQLenPdf::12                      0                       # What write queue length does an incoming req see
system.mem_ctrls.wrQLenPdf::13                      0                       # What write queue length does an incoming req see
system.mem_ctrls.wrQLenPdf::14                      0                       # What write queue length does an incoming req see
system.mem_ctrls.wrQLenPdf::15                   1489                       # What write queue length does an incoming req see
system.mem_ctrls.wrQLenPdf::16                   1784                       # What write queue length does an incoming req see
system.mem_ctrls.wrQLenPdf::17                 113536                       # What write queue length does an incoming req see
system.mem_ctrls.wrQLenPdf::18                 116238                       # What write queue length does an incoming req see
system.mem_ctrls.wrQLenPdf::19                 116295                       # What write queue length does an incoming req see
system.mem_ctrls.wrQLenPdf::20                 116331                       # What write queue length does an incoming req see
system.mem_ctrls.wrQLenPdf::21                 116350                       # What write queue length does an incoming req see
system.mem_ctrls.wrQLenPdf::22                 116389                       # What write queue length does an incoming req see
system.mem_ctrls.wrQLenPdf::23                 116356                       # What write queue length does an incoming req see
system.mem_ctrls.wrQLenPdf::24                 116338                       # What write queue length does an incoming req see
system.mem_ctrls.wrQLenPdf::25                 116330                       # What write queue length does an incoming req see
system.mem_ctrls.wrQLenPdf::26                 116313                       # What write queue length does an incoming req see
system.mem_ctrls.wrQLenPdf::27                 116273                       # What write queue length does an incoming req see
system.mem_ctrls.wrQLenPdf::28                 116212                       # What write queue length does an incoming req see
system.mem_ctrls.wrQLenPdf::29                 116151                       # What write queue length does an incoming req see
system.mem_ctrls.wrQLenPdf::30                 116137                       # What write queue length does an incoming req see
system.mem_ctrls.wrQLenPdf::31                 116125                       # What write queue length does an incoming req see
system.mem_ctrls.wrQLenPdf::32                 116091                       # What write queue length does an incoming req see
system.mem_ctrls.wrQLenPdf::33                     29                       # What write queue length does an incoming req see
system.mem_ctrls.wrQLenPdf::34                      0                       # What write queue length does an incoming req see
system.mem_ctrls.wrQLenPdf::35                      0                       # What write queue length does an incoming req see
system.mem_ctrls.wrQLenPdf::36                      0                       # What write queue length does an incoming req see
system.mem_ctrls.wrQLenPdf::37                      0                       # What write queue length does an incoming req see
system.mem_ctrls.wrQLenPdf::38                      0                       # What write queue length does an incoming req see
system.mem_ctrls.wrQLenPdf::39                      0                       # What write queue length does an incoming req see
system.mem_ctrls.wrQLenPdf::40                      0                       # What write queue length does an incoming req see
system.mem_ctrls.wrQLenPdf::41                      0                       # What write queue length does an incoming req see
system.mem_ctrls.wrQLenPdf::42                      0                       # What write queue length does an incoming req see
system.mem_ctrls.wrQLenPdf::43                      0                       # What write queue length does an incoming req see
system.mem_ctrls.wrQLenPdf::44                      0                       # What write queue length does an incoming req see
system.mem_ctrls.wrQLenPdf::45                      0                       # What write queue length does an incoming req see
system.mem_ctrls.wrQLenPdf::46                      0                       # What write queue length does an incoming req see
system.mem_ctrls.wrQLenPdf::47                      0                       # What write queue length does an incoming req see
system.mem_ctrls.wrQLenPdf::48                      0                       # What write queue length does an incoming req see
system.mem_ctrls.wrQLenPdf::49                      0                       # What write queue length does an incoming req see
system.mem_ctrls.wrQLenPdf::50                      0                       # What write queue length does an incoming req see
system.mem_ctrls.wrQLenPdf::51                      0                       # What write queue length does an incoming req see
system.mem_ctrls.wrQLenPdf::52                      0                       # What write queue length does an incoming req see
system.mem_ctrls.wrQLenPdf::53                      0                       # What write queue length does an incoming req see
system.mem_ctrls.wrQLenPdf::54                      0                       # What write queue length does an incoming req see
system.mem_ctrls.wrQLenPdf::55                      0                       # What write queue length does an incoming req see
system.mem_ctrls.wrQLenPdf::56                      0                       # What write queue length does an incoming req see
system.mem_ctrls.wrQLenPdf::57                      0                       # What write queue length does an incoming req see
system.mem_ctrls.wrQLenPdf::58                      0                       # What write queue length does an incoming req see
system.mem_ctrls.wrQLenPdf::59                      0                       # What write queue length does an incoming req see
system.mem_ctrls.wrQLenPdf::60                      0                       # What write queue length does an incoming req see
system.mem_ctrls.wrQLenPdf::61                      0                       # What write queue length does an incoming req see
system.mem_ctrls.wrQLenPdf::62                      0                       # What write queue length does an incoming req see
system.mem_ctrls.wrQLenPdf::63                      0                       # What write queue length does an incoming req see
system.mem_ctrls.bytesPerActivate::samples      2435620                       # Bytes accessed per row activation
system.mem_ctrls.bytesPerActivate::mean    125.650918                       # Bytes accessed per row activation
system.mem_ctrls.bytesPerActivate::gmean    89.563986                       # Bytes accessed per row activation
system.mem_ctrls.bytesPerActivate::stdev   164.132785                       # Bytes accessed per row activation
system.mem_ctrls.bytesPerActivate::0-127      1788926     73.45%     73.45% # Bytes accessed per row activation
system.mem_ctrls.bytesPerActivate::128-255       388444     15.95%     89.40% # Bytes accessed per row activation
system.mem_ctrls.bytesPerActivate::256-383        80150      3.29%     92.69% # Bytes accessed per row activation
system.mem_ctrls.bytesPerActivate::384-511        56581      2.32%     95.01% # Bytes accessed per row activation
system.mem_ctrls.bytesPerActivate::512-639        41134      1.69%     96.70% # Bytes accessed per row activation
system.mem_ctrls.bytesPerActivate::640-767        25882      1.06%     97.76% # Bytes accessed per row activation
system.mem_ctrls.bytesPerActivate::768-895        14993      0.62%     98.38% # Bytes accessed per row activation
system.mem_ctrls.bytesPerActivate::896-1023        10407      0.43%     98.81% # Bytes accessed per row activation
system.mem_ctrls.bytesPerActivate::1024-1151        29103      1.19%    100.00% # Bytes accessed per row activation
system.mem_ctrls.bytesPerActivate::total      2435620                       # Bytes accessed per row activation
system.mem_ctrls.rdPerTurnAround::samples       116080                       # Reads before turning the bus around for writes
system.mem_ctrls.rdPerTurnAround::mean      25.164412                       # Reads before turning the bus around for writes
system.mem_ctrls.rdPerTurnAround::gmean     23.262779                       # Reads before turning the bus around for writes
system.mem_ctrls.rdPerTurnAround::stdev     13.507988                       # Reads before turning the bus around for writes
system.mem_ctrls.rdPerTurnAround::0-7              20      0.02%      0.02% # Reads before turning the bus around for writes
system.mem_ctrls.rdPerTurnAround::8-15           2423      2.09%      2.10% # Reads before turning the bus around for writes
system.mem_ctrls.rdPerTurnAround::16-23         64918     55.93%     58.03% # Reads before turning the bus around for writes
system.mem_ctrls.rdPerTurnAround::24-31         28986     24.97%     83.00% # Reads before turning the bus around for writes
system.mem_ctrls.rdPerTurnAround::32-39         11358      9.78%     92.79% # Reads before turning the bus around for writes
system.mem_ctrls.rdPerTurnAround::40-47          3850      3.32%     96.10% # Reads before turning the bus around for writes
system.mem_ctrls.rdPerTurnAround::48-55          1588      1.37%     97.47% # Reads before turning the bus around for writes
system.mem_ctrls.rdPerTurnAround::56-63           898      0.77%     98.24% # Reads before turning the bus around for writes
system.mem_ctrls.rdPerTurnAround::64-71           572      0.49%     98.74% # Reads before turning the bus around for writes
system.mem_ctrls.rdPerTurnAround::72-79           408      0.35%     99.09% # Reads before turning the bus around for writes
system.mem_ctrls.rdPerTurnAround::80-87           222      0.19%     99.28% # Reads before turning the bus around for writes
system.mem_ctrls.rdPerTurnAround::88-95           115      0.10%     99.38% # Reads before turning the bus around for writes
system.mem_ctrls.rdPerTurnAround::96-103          106      0.09%     99.47% # Reads before turning the bus around for writes
system.mem_ctrls.rdPerTurnAround::104-111           70      0.06%     99.53% # Reads before turning the bus around for writes
system.mem_ctrls.rdPerTurnAround::112-119           47      0.04%     99.57% # Reads before turning the bus around for writes
system.mem_ctrls.rdPerTurnAround::120-127           50      0.04%     99.61% # Reads before turning the bus around for writes
system.mem_ctrls.rdPerTurnAround::128-135           52      0.04%     99.66% # Reads before turning the bus around for writes
system.mem_ctrls.rdPerTurnAround::136-143           55      0.05%     99.71% # Reads before turning the bus around for writes
system.mem_ctrls.rdPerTurnAround::144-151           81      0.07%     99.78% # Reads before turning the bus around for writes
system.mem_ctrls.rdPerTurnAround::152-159           81      0.07%     99.84% # Reads before turning the bus around for writes
system.mem_ctrls.rdPerTurnAround::160-167           66      0.06%     99.90% # Reads before turning the bus around for writes
system.mem_ctrls.rdPerTurnAround::168-175           44      0.04%     99.94% # Reads before turning the bus around for writes
system.mem_ctrls.rdPerTurnAround::176-183           26      0.02%     99.96% # Reads before turning the bus around for writes
system.mem_ctrls.rdPerTurnAround::184-191           29      0.02%     99.99% # Reads before turning the bus around for writes
system.mem_ctrls.rdPerTurnAround::192-199            9      0.01%     99.99% # Reads before turning the bus around for writes
system.mem_ctrls.rdPerTurnAround::200-207            1      0.00%    100.00% # Reads before turning the bus around for writes
system.mem_ctrls.rdPerTurnAround::208-215            1      0.00%    100.00% # Reads before turning the bus around for writes
system.mem_ctrls.rdPerTurnAround::216-223            4      0.00%    100.00% # Reads before turning the bus around for writes
system.mem_ctrls.rdPerTurnAround::total        116080                       # Reads before turning the bus around for writes
system.mem_ctrls.wrPerTurnAround::samples       116080                       # Writes before turning the bus around for reads
system.mem_ctrls.wrPerTurnAround::mean      16.030014                       # Writes before turning the bus around for reads
system.mem_ctrls.wrPerTurnAround::gmean     16.028333                       # Writes before turning the bus around for reads
system.mem_ctrls.wrPerTurnAround::stdev      0.241312                       # Writes before turning the bus around for reads
system.mem_ctrls.wrPerTurnAround::16           114242     98.42%     98.42% # Writes before turning the bus around for reads
system.mem_ctrls.wrPerTurnAround::17              236      0.20%     98.62% # Writes before turning the bus around for reads
system.mem_ctrls.wrPerTurnAround::18             1558      1.34%     99.96% # Writes before turning the bus around for reads
system.mem_ctrls.wrPerTurnAround::19               44      0.04%    100.00% # Writes before turning the bus around for reads
system.mem_ctrls.wrPerTurnAround::total        116080                       # Writes before turning the bus around for reads
system.mem_ctrls.totQLat                  68021247031                       # Total ticks spent queuing
system.mem_ctrls.totMemAccLat            122791590781                       # Total ticks spent from burst creation until serviced by the DRAM
system.mem_ctrls.totBusLat                14605425000                       # Total ticks spent in databus transfers
system.mem_ctrls.avgQLat                     23286.30                       # Average queueing delay per DRAM burst
system.mem_ctrls.avgBusLat                    5000.00                       # Average bus latency per DRAM burst
system.mem_ctrls.avgMemAccLat                42036.30                       # Average memory access latency per DRAM burst
system.mem_ctrls.avgRdBW                       143.99                       # Average DRAM read bandwidth in MiByte/s
system.mem_ctrls.avgWrBW                        91.72                       # Average achieved write bandwidth in MiByte/s
system.mem_ctrls.avgRdBWSys                    145.62                       # Average system read bandwidth in MiByte/s
system.mem_ctrls.avgWrBWSys                     91.74                       # Average system write bandwidth in MiByte/s
system.mem_ctrls.peakBW                      12800.00                       # Theoretical peak bandwidth in MiByte/s
system.mem_ctrls.busUtil                         1.84                       # Data bus utilization in percentage
system.mem_ctrls.busUtilRead                     1.12                       # Data bus utilization in percentage for reads
system.mem_ctrls.busUtilWrite                    0.72                       # Data bus utilization in percentage for writes
system.mem_ctrls.avgRdQLen                       1.00                       # Average read queue length when enqueuing
system.mem_ctrls.avgWrQLen                      25.48                       # Average write queue length when enqueuing
system.mem_ctrls.readRowHits                  1536183                       # Number of row buffer hits during reads
system.mem_ctrls.writeRowHits                  810037                       # Number of row buffer hits during writes
system.mem_ctrls.readRowHitRate                 52.59                       # Row buffer hit rate for reads
system.mem_ctrls.writeRowHitRate                43.53                       # Row buffer hit rate for writes
system.mem_ctrls.avgGap                     269627.44                       # Average gap between requests
system.mem_ctrls.pageHitRate                    49.07                       # Row buffer hit rate, read and write combined
system.mem_ctrls_0.actEnergy               9297945720                       # Energy for activate commands per rank (pJ)
system.mem_ctrls_0.preEnergy               5073283875                       # Energy for precharge commands per rank (pJ)
system.mem_ctrls_0.readEnergy             11526418800                       # Energy for read commands per rank (pJ)
system.mem_ctrls_0.writeEnergy             6059201760                       # Energy for write commands per rank (pJ)
system.mem_ctrls_0.refreshEnergy          85273815120                       # Energy for refresh commands per rank (pJ)
system.mem_ctrls_0.actBackEnergy         310041454320                       # Energy for active background per rank (pJ)
system.mem_ctrls_0.preBackEnergy         511379017500                       # Energy for precharge background per rank (pJ)
system.mem_ctrls_0.totalEnergy           938651137095                       # Total energy per rank (pJ)
system.mem_ctrls_0.averagePower            718.955932                       # Core power per rank (mW)
system.mem_ctrls_0.memoryStateTime::IDLE 842803087751                       # Time in different power states
system.mem_ctrls_0.memoryStateTime::REF   43356040000                       # Time in different power states
system.mem_ctrls_0.memoryStateTime::PRE_PDN            0                       # Time in different power states
system.mem_ctrls_0.memoryStateTime::ACT  412229558249                       # Time in different power states
system.mem_ctrls_0.memoryStateTime::ACT_PDN            0                       # Time in different power states
system.mem_ctrls_1.actEnergy               9162651960                       # Energy for activate commands per rank (pJ)
system.mem_ctrls_1.preEnergy               4999462875                       # Energy for precharge commands per rank (pJ)
system.mem_ctrls_1.readEnergy             11459253000                       # Energy for read commands per rank (pJ)
system.mem_ctrls_1.writeEnergy             6009681600                       # Energy for write commands per rank (pJ)
system.mem_ctrls_1.refreshEnergy          85273815120                       # Energy for refresh commands per rank (pJ)
system.mem_ctrls_1.actBackEnergy         308186054730                       # Energy for active background per rank (pJ)
system.mem_ctrls_1.preBackEnergy         513006536250                       # Energy for precharge background per rank (pJ)
system.mem_ctrls_1.totalEnergy           938097455535                       # Total energy per rank (pJ)
system.mem_ctrls_1.averagePower            718.531865                       # Core power per rank (mW)
system.mem_ctrls_1.memoryStateTime::IDLE 845561226751                       # Time in different power states
system.mem_ctrls_1.memoryStateTime::REF   43356040000                       # Time in different power states
system.mem_ctrls_1.memoryStateTime::PRE_PDN            0                       # Time in different power states
system.mem_ctrls_1.memoryStateTime::ACT  409471065749                       # Time in different power states
system.mem_ctrls_1.memoryStateTime::ACT_PDN            0                       # Time in different power states
system.cpu_voltage_domain.voltage                   1                       # Voltage in Volts
system.cpu_clk_domain.clock                       500                       # Clock period in ticks
system.cpu0.apic_clk_domain.clock                8000                       # Clock period in ticks
system.cpu0.numCycles                      2596788009                       # number of cpu cycles simulated
system.cpu0.numWorkItemsStarted                     0                       # number of work items this cpu started
system.cpu0.numWorkItemsCompleted                   0                       # number of work items this cpu completed
system.cpu0.kern.inst.arm                           0                       # number of arm instructions executed
system.cpu0.kern.inst.quiesce                       0                       # number of quiesce instructions executed
system.cpu0.committedInsts                    3104217                       # Number of instructions committed
system.cpu0.committedOps                      6217143                       # Number of ops (including micro ops) committed
system.cpu0.num_int_alu_accesses              6108049                       # Number of integer alu accesses
system.cpu0.num_fp_alu_accesses                  1826                       # Number of float alu accesses
system.cpu0.num_func_calls                     164322                       # number of times a function call or return occured
system.cpu0.num_conditional_control_insts       511846                       # number of instructions that are conditional controls
system.cpu0.num_int_insts                     6108049                       # number of integer instructions
system.cpu0.num_fp_insts                         1826                       # number of float instructions
system.cpu0.num_int_register_reads           12177055                       # number of times the integer registers were read
system.cpu0.num_int_register_writes           4966530                       # number of times the integer registers were written
system.cpu0.num_fp_register_reads                3068                       # number of times the floating registers were read
system.cpu0.num_fp_register_writes               1448                       # number of times the floating registers were written
system.cpu0.num_cc_register_reads             3869855                       # number of times the CC registers were read
system.cpu0.num_cc_register_writes            2118901                       # number of times the CC registers were written
system.cpu0.num_mem_refs                      1404228                       # number of memory refs
system.cpu0.num_load_insts                     904839                       # Number of load instructions
system.cpu0.num_store_insts                    499389                       # Number of store instructions
system.cpu0.num_idle_cycles              2579374496.528421                       # Number of idle cycles
system.cpu0.num_busy_cycles              17413512.471579                       # Number of busy cycles
system.cpu0.not_idle_fraction                0.006706                       # Percentage of non-idle cycles
system.cpu0.idle_fraction                    0.993294                       # Percentage of idle cycles
system.cpu0.Branches                           706812                       # Number of branches fetched
system.cpu0.op_class::No_OpClass                42902      0.69%      0.69% # Class of executed instruction
system.cpu0.op_class::IntAlu                  4750495     76.41%     77.10% # Class of executed instruction
system.cpu0.op_class::IntMult                    5245      0.08%     77.18% # Class of executed instruction
system.cpu0.op_class::IntDiv                    12987      0.21%     77.39% # Class of executed instruction
system.cpu0.op_class::FloatAdd                   1376      0.02%     77.41% # Class of executed instruction
system.cpu0.op_class::FloatCmp                      0      0.00%     77.41% # Class of executed instruction
system.cpu0.op_class::FloatCvt                      0      0.00%     77.41% # Class of executed instruction
system.cpu0.op_class::FloatMult                     0      0.00%     77.41% # Class of executed instruction
system.cpu0.op_class::FloatDiv                      0      0.00%     77.41% # Class of executed instruction
system.cpu0.op_class::FloatSqrt                     0      0.00%     77.41% # Class of executed instruction
system.cpu0.op_class::SimdAdd                       0      0.00%     77.41% # Class of executed instruction
system.cpu0.op_class::SimdAddAcc                    0      0.00%     77.41% # Class of executed instruction
system.cpu0.op_class::SimdAlu                       0      0.00%     77.41% # Class of executed instruction
system.cpu0.op_class::SimdCmp                       0      0.00%     77.41% # Class of executed instruction
system.cpu0.op_class::SimdCvt                       0      0.00%     77.41% # Class of executed instruction
system.cpu0.op_class::SimdMisc                      0      0.00%     77.41% # Class of executed instruction
system.cpu0.op_class::SimdMult                      0      0.00%     77.41% # Class of executed instruction
system.cpu0.op_class::SimdMultAcc                   0      0.00%     77.41% # Class of executed instruction
system.cpu0.op_class::SimdShift                     0      0.00%     77.41% # Class of executed instruction
system.cpu0.op_class::SimdShiftAcc                  0      0.00%     77.41% # Class of executed instruction
system.cpu0.op_class::SimdSqrt                      0      0.00%     77.41% # Class of executed instruction
system.cpu0.op_class::SimdFloatAdd                  0      0.00%     77.41% # Class of executed instruction
system.cpu0.op_class::SimdFloatAlu                  0      0.00%     77.41% # Class of executed instruction
system.cpu0.op_class::SimdFloatCmp                  0      0.00%     77.41% # Class of executed instruction
system.cpu0.op_class::SimdFloatCvt                  0      0.00%     77.41% # Class of executed instruction
system.cpu0.op_class::SimdFloatDiv                  0      0.00%     77.41% # Class of executed instruction
system.cpu0.op_class::SimdFloatMisc                 0      0.00%     77.41% # Class of executed instruction
system.cpu0.op_class::SimdFloatMult                 0      0.00%     77.41% # Class of executed instruction
system.cpu0.op_class::SimdFloatMultAcc              0      0.00%     77.41% # Class of executed instruction
system.cpu0.op_class::SimdFloatSqrt                 0      0.00%     77.41% # Class of executed instruction
system.cpu0.op_class::MemRead                  904839     14.55%     91.97% # Class of executed instruction
system.cpu0.op_class::MemWrite                 499389      8.03%    100.00% # Class of executed instruction
system.cpu0.op_class::IprAccess                     0      0.00%    100.00% # Class of executed instruction
system.cpu0.op_class::InstPrefetch                  0      0.00%    100.00% # Class of executed instruction
system.cpu0.op_class::total                   6217233                       # Class of executed instruction
system.cpu1.apic_clk_domain.clock                8000                       # Clock period in ticks
system.cpu1.numCycles                      2600719005                       # number of cpu cycles simulated
system.cpu1.numWorkItemsStarted                     0                       # number of work items this cpu started
system.cpu1.numWorkItemsCompleted                   0                       # number of work items this cpu completed
system.cpu1.kern.inst.arm                           0                       # number of arm instructions executed
system.cpu1.kern.inst.quiesce                       0                       # number of quiesce instructions executed
system.cpu1.committedInsts                     946387                       # Number of instructions committed
system.cpu1.committedOps                      2035918                       # Number of ops (including micro ops) committed
system.cpu1.num_int_alu_accesses              1992534                       # Number of integer alu accesses
system.cpu1.num_fp_alu_accesses                    39                       # Number of float alu accesses
system.cpu1.num_func_calls                      58960                       # number of times a function call or return occured
system.cpu1.num_conditional_control_insts       136674                       # number of instructions that are conditional controls
system.cpu1.num_int_insts                     1992534                       # number of integer instructions
system.cpu1.num_fp_insts                           39                       # number of float instructions
system.cpu1.num_int_register_reads            4058774                       # number of times the integer registers were read
system.cpu1.num_int_register_writes           1645784                       # number of times the integer registers were written
system.cpu1.num_fp_register_reads                  63                       # number of times the floating registers were read
system.cpu1.num_fp_register_writes                 31                       # number of times the floating registers were written
system.cpu1.num_cc_register_reads             1085869                       # number of times the CC registers were read
system.cpu1.num_cc_register_writes             591570                       # number of times the CC registers were written
system.cpu1.num_mem_refs                       491527                       # number of memory refs
system.cpu1.num_load_insts                     305701                       # Number of load instructions
system.cpu1.num_store_insts                    185826                       # Number of store instructions
system.cpu1.num_idle_cycles              2593786094.680862                       # Number of idle cycles
system.cpu1.num_busy_cycles              6932910.319138                       # Number of busy cycles
system.cpu1.not_idle_fraction                0.002666                       # Percentage of non-idle cycles
system.cpu1.idle_fraction                    0.997334                       # Percentage of idle cycles
system.cpu1.Branches                           214552                       # Number of branches fetched
system.cpu1.op_class::No_OpClass                33355      1.64%      1.64% # Class of executed instruction
system.cpu1.op_class::IntAlu                  1495793     73.47%     75.11% # Class of executed instruction
system.cpu1.op_class::IntMult                    3910      0.19%     75.30% # Class of executed instruction
system.cpu1.op_class::IntDiv                    11325      0.56%     75.86% # Class of executed instruction
system.cpu1.op_class::FloatAdd                     30      0.00%     75.86% # Class of executed instruction
system.cpu1.op_class::FloatCmp                      0      0.00%     75.86% # Class of executed instruction
system.cpu1.op_class::FloatCvt                      0      0.00%     75.86% # Class of executed instruction
system.cpu1.op_class::FloatMult                     0      0.00%     75.86% # Class of executed instruction
system.cpu1.op_class::FloatDiv                      0      0.00%     75.86% # Class of executed instruction
system.cpu1.op_class::FloatSqrt                     0      0.00%     75.86% # Class of executed instruction
system.cpu1.op_class::SimdAdd                       0      0.00%     75.86% # Class of executed instruction
system.cpu1.op_class::SimdAddAcc                    0      0.00%     75.86% # Class of executed instruction
system.cpu1.op_class::SimdAlu                       0      0.00%     75.86% # Class of executed instruction
system.cpu1.op_class::SimdCmp                       0      0.00%     75.86% # Class of executed instruction
system.cpu1.op_class::SimdCvt                       0      0.00%     75.86% # Class of executed instruction
system.cpu1.op_class::SimdMisc                      0      0.00%     75.86% # Class of executed instruction
system.cpu1.op_class::SimdMult                      0      0.00%     75.86% # Class of executed instruction
system.cpu1.op_class::SimdMultAcc                   0      0.00%     75.86% # Class of executed instruction
system.cpu1.op_class::SimdShift                     0      0.00%     75.86% # Class of executed instruction
system.cpu1.op_class::SimdShiftAcc                  0      0.00%     75.86% # Class of executed instruction
system.cpu1.op_class::SimdSqrt                      0      0.00%     75.86% # Class of executed instruction
system.cpu1.op_class::SimdFloatAdd                  0      0.00%     75.86% # Class of executed instruction
system.cpu1.op_class::SimdFloatAlu                  0      0.00%     75.86% # Class of executed instruction
system.cpu1.op_class::SimdFloatCmp                  0      0.00%     75.86% # Class of executed instruction
system.cpu1.op_class::SimdFloatCvt                  0      0.00%     75.86% # Class of executed instruction
system.cpu1.op_class::SimdFloatDiv                  0      0.00%     75.86% # Class of executed instruction
system.cpu1.op_class::SimdFloatMisc                 0      0.00%     75.86% # Class of executed instruction
system.cpu1.op_class::SimdFloatMult                 0      0.00%     75.86% # Class of executed instruction
system.cpu1.op_class::SimdFloatMultAcc              0      0.00%     75.86% # Class of executed instruction
system.cpu1.op_class::SimdFloatSqrt                 0      0.00%     75.86% # Class of executed instruction
system.cpu1.op_class::MemRead                  305701     15.02%     90.87% # Class of executed instruction
system.cpu1.op_class::MemWrite                 185826      9.13%    100.00% # Class of executed instruction
system.cpu1.op_class::IprAccess                     0      0.00%    100.00% # Class of executed instruction
system.cpu1.op_class::InstPrefetch                  0      0.00%    100.00% # Class of executed instruction
system.cpu1.op_class::total                   2035940                       # Class of executed instruction
system.cpu2.apic_clk_domain.clock                8000                       # Clock period in ticks
system.cpu2.numCycles                      2598997684                       # number of cpu cycles simulated
system.cpu2.numWorkItemsStarted                     0                       # number of work items this cpu started
system.cpu2.numWorkItemsCompleted                   0                       # number of work items this cpu completed
system.cpu2.kern.inst.arm                           0                       # number of arm instructions executed
system.cpu2.kern.inst.quiesce                       0                       # number of quiesce instructions executed
system.cpu2.committedInsts                  533894176                       # Number of instructions committed
system.cpu2.committedOps                    709263015                       # Number of ops (including micro ops) committed
system.cpu2.num_int_alu_accesses            508884828                       # Number of integer alu accesses
system.cpu2.num_fp_alu_accesses             331101068                       # Number of float alu accesses
system.cpu2.num_func_calls                     435519                       # number of times a function call or return occured
system.cpu2.num_conditional_control_insts     31471198                       # number of instructions that are conditional controls
system.cpu2.num_int_insts                   508884828                       # number of integer instructions
system.cpu2.num_fp_insts                    331101068                       # number of float instructions
system.cpu2.num_int_register_reads         1070286649                       # number of times the integer registers were read
system.cpu2.num_int_register_writes         339908640                       # number of times the integer registers were written
system.cpu2.num_fp_register_reads           564014582                       # number of times the floating registers were read
system.cpu2.num_fp_register_writes          276695748                       # number of times the floating registers were written
system.cpu2.num_cc_register_reads           220322571                       # number of times the CC registers were read
system.cpu2.num_cc_register_writes          241380700                       # number of times the CC registers were written
system.cpu2.num_mem_refs                    152862176                       # number of memory refs
system.cpu2.num_load_insts                   94775893                       # Number of load instructions
system.cpu2.num_store_insts                  58086283                       # Number of store instructions
system.cpu2.num_idle_cycles              11310251.067199                       # Number of idle cycles
system.cpu2.num_busy_cycles              2587687432.932801                       # Number of busy cycles
system.cpu2.not_idle_fraction                0.995648                       # Percentage of non-idle cycles
system.cpu2.idle_fraction                    0.004352                       # Percentage of idle cycles
system.cpu2.Branches                         33886638                       # Number of branches fetched
system.cpu2.op_class::No_OpClass               955795      0.13%      0.13% # Class of executed instruction
system.cpu2.op_class::IntAlu                444133323     62.62%     62.75% # Class of executed instruction
system.cpu2.op_class::IntMult                   24823      0.00%     62.76% # Class of executed instruction
system.cpu2.op_class::IntDiv                   145469      0.02%     62.78% # Class of executed instruction
system.cpu2.op_class::FloatAdd              111149730     15.67%     78.45% # Class of executed instruction
system.cpu2.op_class::FloatCmp                      0      0.00%     78.45% # Class of executed instruction
system.cpu2.op_class::FloatCvt                      0      0.00%     78.45% # Class of executed instruction
system.cpu2.op_class::FloatMult                     0      0.00%     78.45% # Class of executed instruction
system.cpu2.op_class::FloatDiv                      0      0.00%     78.45% # Class of executed instruction
system.cpu2.op_class::FloatSqrt                     0      0.00%     78.45% # Class of executed instruction
system.cpu2.op_class::SimdAdd                       0      0.00%     78.45% # Class of executed instruction
system.cpu2.op_class::SimdAddAcc                    0      0.00%     78.45% # Class of executed instruction
system.cpu2.op_class::SimdAlu                       0      0.00%     78.45% # Class of executed instruction
system.cpu2.op_class::SimdCmp                       0      0.00%     78.45% # Class of executed instruction
system.cpu2.op_class::SimdCvt                       0      0.00%     78.45% # Class of executed instruction
system.cpu2.op_class::SimdMisc                      0      0.00%     78.45% # Class of executed instruction
system.cpu2.op_class::SimdMult                      0      0.00%     78.45% # Class of executed instruction
system.cpu2.op_class::SimdMultAcc                   0      0.00%     78.45% # Class of executed instruction
system.cpu2.op_class::SimdShift                     0      0.00%     78.45% # Class of executed instruction
system.cpu2.op_class::SimdShiftAcc                  0      0.00%     78.45% # Class of executed instruction
system.cpu2.op_class::SimdSqrt                      0      0.00%     78.45% # Class of executed instruction
system.cpu2.op_class::SimdFloatAdd                  0      0.00%     78.45% # Class of executed instruction
system.cpu2.op_class::SimdFloatAlu                  0      0.00%     78.45% # Class of executed instruction
system.cpu2.op_class::SimdFloatCmp                  0      0.00%     78.45% # Class of executed instruction
system.cpu2.op_class::SimdFloatCvt                  0      0.00%     78.45% # Class of executed instruction
system.cpu2.op_class::SimdFloatDiv                  0      0.00%     78.45% # Class of executed instruction
system.cpu2.op_class::SimdFloatMisc                 0      0.00%     78.45% # Class of executed instruction
system.cpu2.op_class::SimdFloatMult                 0      0.00%     78.45% # Class of executed instruction
system.cpu2.op_class::SimdFloatMultAcc              0      0.00%     78.45% # Class of executed instruction
system.cpu2.op_class::SimdFloatSqrt                 0      0.00%     78.45% # Class of executed instruction
system.cpu2.op_class::MemRead                94775893     13.36%     91.81% # Class of executed instruction
system.cpu2.op_class::MemWrite               58086283      8.19%    100.00% # Class of executed instruction
system.cpu2.op_class::IprAccess                     0      0.00%    100.00% # Class of executed instruction
system.cpu2.op_class::InstPrefetch                  0      0.00%    100.00% # Class of executed instruction
system.cpu2.op_class::total                 709271316                       # Class of executed instruction
system.cpu3.apic_clk_domain.clock                8000                       # Clock period in ticks
system.cpu3.numCycles                      2598340518                       # number of cpu cycles simulated
system.cpu3.numWorkItemsStarted                     0                       # number of work items this cpu started
system.cpu3.numWorkItemsCompleted                   0                       # number of work items this cpu completed
system.cpu3.kern.inst.arm                           0                       # number of arm instructions executed
system.cpu3.kern.inst.quiesce                       0                       # number of quiesce instructions executed
system.cpu3.committedInsts                     988846                       # Number of instructions committed
system.cpu3.committedOps                      2124307                       # Number of ops (including micro ops) committed
system.cpu3.num_int_alu_accesses              2074084                       # Number of integer alu accesses
system.cpu3.num_fp_alu_accesses                     0                       # Number of float alu accesses
system.cpu3.num_func_calls                      57702                       # number of times a function call or return occured
system.cpu3.num_conditional_control_insts       152690                       # number of instructions that are conditional controls
system.cpu3.num_int_insts                     2074084                       # number of integer instructions
system.cpu3.num_fp_insts                            0                       # number of float instructions
system.cpu3.num_int_register_reads            4213911                       # number of times the integer registers were read
system.cpu3.num_int_register_writes           1720953                       # number of times the integer registers were written
system.cpu3.num_fp_register_reads                   0                       # number of times the floating registers were read
system.cpu3.num_fp_register_writes                  0                       # number of times the floating registers were written
system.cpu3.num_cc_register_reads             1198566                       # number of times the CC registers were read
system.cpu3.num_cc_register_writes             626065                       # number of times the CC registers were written
system.cpu3.num_mem_refs                       503059                       # number of memory refs
system.cpu3.num_load_insts                     314806                       # Number of load instructions
system.cpu3.num_store_insts                    188253                       # Number of store instructions
system.cpu3.num_idle_cycles              2591298341.127284                       # Number of idle cycles
system.cpu3.num_busy_cycles              7042176.872716                       # Number of busy cycles
system.cpu3.not_idle_fraction                0.002710                       # Percentage of non-idle cycles
system.cpu3.idle_fraction                    0.997290                       # Percentage of idle cycles
system.cpu3.Branches                           229228                       # Number of branches fetched
system.cpu3.op_class::No_OpClass                38803      1.83%      1.83% # Class of executed instruction
system.cpu3.op_class::IntAlu                  1563537     73.60%     75.43% # Class of executed instruction
system.cpu3.op_class::IntMult                    4946      0.23%     75.66% # Class of executed instruction
system.cpu3.op_class::IntDiv                    13965      0.66%     76.32% # Class of executed instruction
system.cpu3.op_class::FloatAdd                      0      0.00%     76.32% # Class of executed instruction
system.cpu3.op_class::FloatCmp                      0      0.00%     76.32% # Class of executed instruction
system.cpu3.op_class::FloatCvt                      0      0.00%     76.32% # Class of executed instruction
system.cpu3.op_class::FloatMult                     0      0.00%     76.32% # Class of executed instruction
system.cpu3.op_class::FloatDiv                      0      0.00%     76.32% # Class of executed instruction
system.cpu3.op_class::FloatSqrt                     0      0.00%     76.32% # Class of executed instruction
system.cpu3.op_class::SimdAdd                       0      0.00%     76.32% # Class of executed instruction
system.cpu3.op_class::SimdAddAcc                    0      0.00%     76.32% # Class of executed instruction
system.cpu3.op_class::SimdAlu                       0      0.00%     76.32% # Class of executed instruction
system.cpu3.op_class::SimdCmp                       0      0.00%     76.32% # Class of executed instruction
system.cpu3.op_class::SimdCvt                       0      0.00%     76.32% # Class of executed instruction
system.cpu3.op_class::SimdMisc                      0      0.00%     76.32% # Class of executed instruction
system.cpu3.op_class::SimdMult                      0      0.00%     76.32% # Class of executed instruction
system.cpu3.op_class::SimdMultAcc                   0      0.00%     76.32% # Class of executed instruction
system.cpu3.op_class::SimdShift                     0      0.00%     76.32% # Class of executed instruction
system.cpu3.op_class::SimdShiftAcc                  0      0.00%     76.32% # Class of executed instruction
system.cpu3.op_class::SimdSqrt                      0      0.00%     76.32% # Class of executed instruction
system.cpu3.op_class::SimdFloatAdd                  0      0.00%     76.32% # Class of executed instruction
system.cpu3.op_class::SimdFloatAlu                  0      0.00%     76.32% # Class of executed instruction
system.cpu3.op_class::SimdFloatCmp                  0      0.00%     76.32% # Class of executed instruction
system.cpu3.op_class::SimdFloatCvt                  0      0.00%     76.32% # Class of executed instruction
system.cpu3.op_class::SimdFloatDiv                  0      0.00%     76.32% # Class of executed instruction
system.cpu3.op_class::SimdFloatMisc                 0      0.00%     76.32% # Class of executed instruction
system.cpu3.op_class::SimdFloatMult                 0      0.00%     76.32% # Class of executed instruction
system.cpu3.op_class::SimdFloatMultAcc              0      0.00%     76.32% # Class of executed instruction
system.cpu3.op_class::SimdFloatSqrt                 0      0.00%     76.32% # Class of executed instruction
system.cpu3.op_class::MemRead                  314806     14.82%     91.14% # Class of executed instruction
system.cpu3.op_class::MemWrite                 188253      8.86%    100.00% # Class of executed instruction
system.cpu3.op_class::IprAccess                     0      0.00%    100.00% # Class of executed instruction
system.cpu3.op_class::InstPrefetch                  0      0.00%    100.00% # Class of executed instruction
system.cpu3.op_class::total                   2124310                       # Class of executed instruction
system.iobus.trans_dist::ReadReq                  706                       # Transaction distribution
system.iobus.trans_dist::ReadResp                 706                       # Transaction distribution
system.iobus.trans_dist::WriteReq                1563                       # Transaction distribution
system.iobus.trans_dist::WriteResp               1563                       # Transaction distribution
system.iobus.trans_dist::MessageReq                10                       # Transaction distribution
system.iobus.trans_dist::MessageResp               10                       # Transaction distribution
system.iobus.pkt_count_system.pc.south_bridge.io_apic.int_master::system.ruby.l0_cntrl1.sequencer.pio-slave-port            2                       # Packet count per connected master and slave (bytes)
system.iobus.pkt_count_system.pc.south_bridge.io_apic.int_master::system.ruby.l0_cntrl2.sequencer.pio-slave-port            2                       # Packet count per connected master and slave (bytes)
system.iobus.pkt_count_system.pc.south_bridge.io_apic.int_master::total            4                       # Packet count per connected master and slave (bytes)
system.iobus.pkt_count_system.ruby.l0_cntrl0.sequencer.mem-master-port::system.ruby.l0_cntrl0.sequencer.pio-slave-port          670                       # Packet count per connected master and slave (bytes)
system.iobus.pkt_count_system.ruby.l0_cntrl0.sequencer.mem-master-port::system.ruby.l0_cntrl1.sequencer.pio-slave-port            2                       # Packet count per connected master and slave (bytes)
system.iobus.pkt_count_system.ruby.l0_cntrl0.sequencer.mem-master-port::system.ruby.l0_cntrl2.sequencer.pio-slave-port            2                       # Packet count per connected master and slave (bytes)
system.iobus.pkt_count_system.ruby.l0_cntrl0.sequencer.mem-master-port::system.ruby.l0_cntrl3.sequencer.pio-slave-port            2                       # Packet count per connected master and slave (bytes)
system.iobus.pkt_count_system.ruby.l0_cntrl0.sequencer.mem-master-port::total          676                       # Packet count per connected master and slave (bytes)
system.iobus.pkt_count_system.ruby.l0_cntrl1.sequencer.mem-master-port::system.pc.south_bridge.io_apic.pio            6                       # Packet count per connected master and slave (bytes)
system.iobus.pkt_count_system.ruby.l0_cntrl1.sequencer.mem-master-port::system.pc.com_1.pio         1854                       # Packet count per connected master and slave (bytes)
system.iobus.pkt_count_system.ruby.l0_cntrl1.sequencer.mem-master-port::system.ruby.l0_cntrl1.sequencer.pio-slave-port          662                       # Packet count per connected master and slave (bytes)
system.iobus.pkt_count_system.ruby.l0_cntrl1.sequencer.mem-master-port::system.ruby.l0_cntrl2.sequencer.pio-slave-port            2                       # Packet count per connected master and slave (bytes)
system.iobus.pkt_count_system.ruby.l0_cntrl1.sequencer.mem-master-port::total         2524                       # Packet count per connected master and slave (bytes)
system.iobus.pkt_count_system.ruby.l0_cntrl2.sequencer.mem-master-port::system.pc.south_bridge.io_apic.pio            8                       # Packet count per connected master and slave (bytes)
system.iobus.pkt_count_system.ruby.l0_cntrl2.sequencer.mem-master-port::system.ruby.l0_cntrl1.sequencer.pio-slave-port            2                       # Packet count per connected master and slave (bytes)
system.iobus.pkt_count_system.ruby.l0_cntrl2.sequencer.mem-master-port::system.ruby.l0_cntrl2.sequencer.pio-slave-port          674                       # Packet count per connected master and slave (bytes)
system.iobus.pkt_count_system.ruby.l0_cntrl2.sequencer.mem-master-port::system.ruby.l0_cntrl3.sequencer.pio-slave-port            4                       # Packet count per connected master and slave (bytes)
system.iobus.pkt_count_system.ruby.l0_cntrl2.sequencer.mem-master-port::total          688                       # Packet count per connected master and slave (bytes)
system.iobus.pkt_count_system.ruby.l0_cntrl3.sequencer.mem-master-port::system.pc.com_1.pio            2                       # Packet count per connected master and slave (bytes)
system.iobus.pkt_count_system.ruby.l0_cntrl3.sequencer.mem-master-port::system.ruby.l0_cntrl0.sequencer.pio-slave-port            2                       # Packet count per connected master and slave (bytes)
system.iobus.pkt_count_system.ruby.l0_cntrl3.sequencer.mem-master-port::system.ruby.l0_cntrl3.sequencer.pio-slave-port          662                       # Packet count per connected master and slave (bytes)
system.iobus.pkt_count_system.ruby.l0_cntrl3.sequencer.mem-master-port::total          666                       # Packet count per connected master and slave (bytes)
system.iobus.pkt_count::total                    4558                       # Packet count per connected master and slave (bytes)
system.iobus.pkt_size_system.pc.south_bridge.io_apic.int_master::system.ruby.l0_cntrl1.sequencer.pio-slave-port            4                       # Cumulative packet size per connected master and slave (bytes)
system.iobus.pkt_size_system.pc.south_bridge.io_apic.int_master::system.ruby.l0_cntrl2.sequencer.pio-slave-port            4                       # Cumulative packet size per connected master and slave (bytes)
system.iobus.pkt_size_system.pc.south_bridge.io_apic.int_master::total            8                       # Cumulative packet size per connected master and slave (bytes)
system.iobus.pkt_size_system.ruby.l0_cntrl0.sequencer.mem-master-port::system.ruby.l0_cntrl0.sequencer.pio-slave-port         1340                       # Cumulative packet size per connected master and slave (bytes)
system.iobus.pkt_size_system.ruby.l0_cntrl0.sequencer.mem-master-port::system.ruby.l0_cntrl1.sequencer.pio-slave-port            4                       # Cumulative packet size per connected master and slave (bytes)
system.iobus.pkt_size_system.ruby.l0_cntrl0.sequencer.mem-master-port::system.ruby.l0_cntrl2.sequencer.pio-slave-port            4                       # Cumulative packet size per connected master and slave (bytes)
system.iobus.pkt_size_system.ruby.l0_cntrl0.sequencer.mem-master-port::system.ruby.l0_cntrl3.sequencer.pio-slave-port            4                       # Cumulative packet size per connected master and slave (bytes)
system.iobus.pkt_size_system.ruby.l0_cntrl0.sequencer.mem-master-port::total         1352                       # Cumulative packet size per connected master and slave (bytes)
system.iobus.pkt_size_system.ruby.l0_cntrl1.sequencer.mem-master-port::system.pc.south_bridge.io_apic.pio           12                       # Cumulative packet size per connected master and slave (bytes)
system.iobus.pkt_size_system.ruby.l0_cntrl1.sequencer.mem-master-port::system.pc.com_1.pio          927                       # Cumulative packet size per connected master and slave (bytes)
system.iobus.pkt_size_system.ruby.l0_cntrl1.sequencer.mem-master-port::system.ruby.l0_cntrl1.sequencer.pio-slave-port         1324                       # Cumulative packet size per connected master and slave (bytes)
system.iobus.pkt_size_system.ruby.l0_cntrl1.sequencer.mem-master-port::system.ruby.l0_cntrl2.sequencer.pio-slave-port            4                       # Cumulative packet size per connected master and slave (bytes)
system.iobus.pkt_size_system.ruby.l0_cntrl1.sequencer.mem-master-port::total         2267                       # Cumulative packet size per connected master and slave (bytes)
system.iobus.pkt_size_system.ruby.l0_cntrl2.sequencer.mem-master-port::system.pc.south_bridge.io_apic.pio           16                       # Cumulative packet size per connected master and slave (bytes)
system.iobus.pkt_size_system.ruby.l0_cntrl2.sequencer.mem-master-port::system.ruby.l0_cntrl1.sequencer.pio-slave-port            4                       # Cumulative packet size per connected master and slave (bytes)
system.iobus.pkt_size_system.ruby.l0_cntrl2.sequencer.mem-master-port::system.ruby.l0_cntrl2.sequencer.pio-slave-port         1348                       # Cumulative packet size per connected master and slave (bytes)
system.iobus.pkt_size_system.ruby.l0_cntrl2.sequencer.mem-master-port::system.ruby.l0_cntrl3.sequencer.pio-slave-port            8                       # Cumulative packet size per connected master and slave (bytes)
system.iobus.pkt_size_system.ruby.l0_cntrl2.sequencer.mem-master-port::total         1376                       # Cumulative packet size per connected master and slave (bytes)
system.iobus.pkt_size_system.ruby.l0_cntrl3.sequencer.mem-master-port::system.pc.com_1.pio            1                       # Cumulative packet size per connected master and slave (bytes)
system.iobus.pkt_size_system.ruby.l0_cntrl3.sequencer.mem-master-port::system.ruby.l0_cntrl0.sequencer.pio-slave-port            4                       # Cumulative packet size per connected master and slave (bytes)
system.iobus.pkt_size_system.ruby.l0_cntrl3.sequencer.mem-master-port::system.ruby.l0_cntrl3.sequencer.pio-slave-port         1324                       # Cumulative packet size per connected master and slave (bytes)
system.iobus.pkt_size_system.ruby.l0_cntrl3.sequencer.mem-master-port::total         1329                       # Cumulative packet size per connected master and slave (bytes)
system.iobus.pkt_size::total                     6332                       # Cumulative packet size per connected master and slave (bytes)
system.iobus.reqLayer8.occupancy                12498                       # Layer occupancy (ticks)
system.iobus.reqLayer8.utilization                0.0                       # Layer utilization (%)
system.iobus.reqLayer12.occupancy             1208000                       # Layer occupancy (ticks)
system.iobus.reqLayer12.utilization               0.0                       # Layer utilization (%)
system.iobus.reqLayer17.occupancy              746498                       # Layer occupancy (ticks)
system.iobus.reqLayer17.utilization               0.0                       # Layer utilization (%)
system.iobus.reqLayer18.occupancy              741500                       # Layer occupancy (ticks)
system.iobus.reqLayer18.utilization               0.0                       # Layer utilization (%)
system.iobus.reqLayer19.occupancy              872281                       # Layer occupancy (ticks)
system.iobus.reqLayer19.utilization               0.0                       # Layer utilization (%)
system.iobus.reqLayer20.occupancy              760000                       # Layer occupancy (ticks)
system.iobus.reqLayer20.utilization               0.0                       # Layer utilization (%)
system.iobus.respLayer0.occupancy                3000                       # Layer occupancy (ticks)
system.iobus.respLayer0.utilization               0.0                       # Layer utilization (%)
system.iobus.respLayer2.occupancy              509000                       # Layer occupancy (ticks)
system.iobus.respLayer2.utilization               0.0                       # Layer utilization (%)
system.iobus.respLayer4.occupancy             2124500                       # Layer occupancy (ticks)
system.iobus.respLayer4.utilization               0.0                       # Layer utilization (%)
system.iobus.respLayer6.occupancy              518500                       # Layer occupancy (ticks)
system.iobus.respLayer6.utilization               0.0                       # Layer utilization (%)
system.iobus.respLayer8.occupancy              500000                       # Layer occupancy (ticks)
system.iobus.respLayer8.utilization               0.0                       # Layer utilization (%)
system.pc.south_bridge.ide.disks.dma_read_full_pages            0                       # Number of full page size DMA reads (not PRD).
system.pc.south_bridge.ide.disks.dma_read_bytes            0                       # Number of bytes transfered via DMA reads (not PRD).
system.pc.south_bridge.ide.disks.dma_read_txs            0                       # Number of DMA read transactions (not PRD).
system.pc.south_bridge.ide.disks.dma_write_full_pages            0                       # Number of full page size DMA writes.
system.pc.south_bridge.ide.disks.dma_write_bytes            0                       # Number of bytes transfered via DMA writes.
system.pc.south_bridge.ide.disks.dma_write_txs            0                       # Number of DMA write transactions.
system.ruby.clk_domain.clock                      500                       # Clock period in ticks
system.ruby.delayHist::bucket_size                  4                       # delay histogram for all message
system.ruby.delayHist::max_bucket                  39                       # delay histogram for all message
system.ruby.delayHist::samples               89923313                       # delay histogram for all message
system.ruby.delayHist::mean                  0.506713                       # delay histogram for all message
system.ruby.delayHist::stdev                 1.949021                       # delay histogram for all message
system.ruby.delayHist                    |    84230999     93.67%     93.67% |        5489      0.01%     93.68% |     5684989      6.32%    100.00% |         451      0.00%    100.00% |        1361      0.00%    100.00% |           6      0.00%    100.00% |          18      0.00%    100.00% |           0      0.00%    100.00% |           0      0.00%    100.00% |           0      0.00%    100.00% # delay histogram for all message
system.ruby.delayHist::total                 89923313                       # delay histogram for all message
system.ruby.outstanding_req_hist_seqr::bucket_size            1                      
system.ruby.outstanding_req_hist_seqr::max_bucket            9                      
system.ruby.outstanding_req_hist_seqr::samples    936928987                      
system.ruby.outstanding_req_hist_seqr::mean     1.000000                      
system.ruby.outstanding_req_hist_seqr::gmean     1.000000                      
system.ruby.outstanding_req_hist_seqr::stdev     0.000509                      
system.ruby.outstanding_req_hist_seqr    |           0      0.00%      0.00% |   936928744    100.00%    100.00% |         243      0.00%    100.00% |           0      0.00%    100.00% |           0      0.00%    100.00% |           0      0.00%    100.00% |           0      0.00%    100.00% |           0      0.00%    100.00% |           0      0.00%    100.00% |           0      0.00%    100.00%
system.ruby.outstanding_req_hist_seqr::total    936928987                      
system.ruby.latency_hist_seqr::bucket_size          512                      
system.ruby.latency_hist_seqr::max_bucket         5119                      
system.ruby.latency_hist_seqr::samples      936928987                      
system.ruby.latency_hist_seqr::mean          1.792501                      
system.ruby.latency_hist_seqr::gmean         1.088653                      
system.ruby.latency_hist_seqr::stdev        11.381723                      
system.ruby.latency_hist_seqr            |   936827922     99.99%     99.99% |       96058      0.01%    100.00% |        4615      0.00%    100.00% |         373      0.00%    100.00% |          18      0.00%    100.00% |           1      0.00%    100.00% |           0      0.00%    100.00% |           0      0.00%    100.00% |           0      0.00%    100.00% |           0      0.00%    100.00%
system.ruby.latency_hist_seqr::total        936928987                      
system.ruby.hit_latency_hist_seqr::bucket_size            1                      
system.ruby.hit_latency_hist_seqr::max_bucket            9                      
system.ruby.hit_latency_hist_seqr::samples    899972305                      
system.ruby.hit_latency_hist_seqr::mean             1                      
system.ruby.hit_latency_hist_seqr::gmean            1                      
system.ruby.hit_latency_hist_seqr        |           0      0.00%      0.00% |   899972305    100.00%    100.00% |           0      0.00%    100.00% |           0      0.00%    100.00% |           0      0.00%    100.00% |           0      0.00%    100.00% |           0      0.00%    100.00% |           0      0.00%    100.00% |           0      0.00%    100.00% |           0      0.00%    100.00%
system.ruby.hit_latency_hist_seqr::total    899972305                      
system.ruby.miss_latency_hist_seqr::bucket_size          512                      
system.ruby.miss_latency_hist_seqr::max_bucket         5119                      
system.ruby.miss_latency_hist_seqr::samples     36956682                      
system.ruby.miss_latency_hist_seqr::mean    21.091547                      
system.ruby.miss_latency_hist_seqr::gmean     8.614321                      
system.ruby.miss_latency_hist_seqr::stdev    53.818710                      
[...]
system.ruby.L1Cache_Controller.Ack_all::total         9602                      
system.ruby.L1Cache_Controller.WB_Ack    |      130848      1.40%      1.40% |       22754      0.24%      1.64% |     9147318     97.94%     99.59% |       38721      0.41%    100.00%
system.ruby.L1Cache_Controller.WB_Ack::total      9339641                      
system.ruby.L1Cache_Controller.I.Load    |      144372      2.33%      2.33% |       51189      0.82%      3.15% |     5940273     95.72%     98.87% |       70165      1.13%    100.00%
system.ruby.L1Cache_Controller.I.Load::total      6205999                      
system.ruby.L1Cache_Controller.I.Store   |       39514      1.13%      1.13% |       11171      0.32%      1.45% |     3417474     98.05%     99.50% |       17326      0.50%    100.00%
system.ruby.L1Cache_Controller.I.Store::total      3485485                      
system.ruby.L1Cache_Controller.I.Inv     |        3302     22.82%     22.82% |        2591     17.90%     40.72% |        5713     39.48%     80.20% |        2865     19.80%    100.00%
system.ruby.L1Cache_Controller.I.Inv::total        14471                      
system.ruby.L1Cache_Controller.S.Load    |      194654     26.62%     26.62% |       85566     11.70%     38.32% |      351358     48.05%     86.36% |       99727     13.64%    100.00%
system.ruby.L1Cache_Controller.S.Load::total       731305                      
system.ruby.L1Cache_Controller.S.Store   |        2675     38.98%     38.98% |        1193     17.39%     56.37% |        1618     23.58%     79.95% |        1376     20.05%    100.00%
system.ruby.L1Cache_Controller.S.Store::total         6862                      
system.ruby.L1Cache_Controller.S.L0_Invalidate_Own |       29768     10.85%     10.85% |       17495      6.38%     17.23% |      203568     74.20%     91.43% |       23506      8.57%    100.00%
system.ruby.L1Cache_Controller.S.L0_Invalidate_Own::total       274337                      
system.ruby.L1Cache_Controller.S.L0_Invalidate_Else |        8683     33.35%     33.35% |        7336     28.17%     61.52% |        1136      4.36%     65.88% |        8883     34.12%    100.00%
system.ruby.L1Cache_Controller.S.L0_Invalidate_Else::total        26038                      
system.ruby.L1Cache_Controller.SS.Load   |        1720     22.52%     22.52% |        3219     42.14%     64.66% |         303      3.97%     68.63% |        2396     31.37%    100.00%
system.ruby.L1Cache_Controller.SS.Load::total         7638                      
system.ruby.L1Cache_Controller.SS.Store  |         414     69.58%     69.58% |          83     13.95%     83.53% |          36      6.05%     89.58% |          62     10.42%    100.00%
system.ruby.L1Cache_Controller.SS.Store::total          595                      
system.ruby.L1Cache_Controller.SS.Inv    |       10384     28.71%     28.71% |       11221     31.03%     59.74% |        1936      5.35%     65.09% |       12625     34.91%    100.00%
system.ruby.L1Cache_Controller.SS.Inv::total        36166                      
system.ruby.L1Cache_Controller.SS.L1_Replacement |       30538     10.99%     10.99% |       18126      6.52%     17.51% |      204789     73.68%     91.19% |       24475      8.81%    100.00%
system.ruby.L1Cache_Controller.SS.L1_Replacement::total       277928                      
system.ruby.L1Cache_Controller.E.WriteBack |      101938      1.77%      1.77% |       24309      0.42%      2.19% |     5613587     97.21%     99.39% |       35098      0.61%    100.00%
system.ruby.L1Cache_Controller.E.WriteBack::total      5774932                      
system.ruby.L1Cache_Controller.E.L0_Invalidate_Own |        1819      1.48%      1.48% |         192      0.16%      1.64% |      120519     98.07%     99.71% |         361      0.29%    100.00%
system.ruby.L1Cache_Controller.E.L0_Invalidate_Own::total       122891                      
system.ruby.L1Cache_Controller.E.L0_Invalidate_Else |        1195     14.14%     14.14% |        3766     44.56%     58.70% |         156      1.85%     60.54% |        3335     39.46%    100.00%
system.ruby.L1Cache_Controller.E.L0_Invalidate_Else::total         8452                      
system.ruby.L1Cache_Controller.EE.Inv    |         800     23.06%     23.06% |        1462     42.14%     65.21% |          43      1.24%     66.45% |        1164     33.55%    100.00%
system.ruby.L1Cache_Controller.EE.Inv::total         3469                      
system.ruby.L1Cache_Controller.EE.L1_Replacement |        1750      1.43%      1.43% |         141      0.12%      1.54% |      120391     98.20%     99.74% |         317      0.26%    100.00%
system.ruby.L1Cache_Controller.EE.L1_Replacement::total       122599                      
system.ruby.L1Cache_Controller.EE.Fwd_GETX |           3     20.00%     20.00% |           2     13.33%     33.33% |           5     33.33%     66.67% |           5     33.33%    100.00%
system.ruby.L1Cache_Controller.EE.Fwd_GETX::total           15                      
system.ruby.L1Cache_Controller.EE.Fwd_GETS |         219      5.99%      5.99% |        1806     49.36%     55.34% |          82      2.24%     57.58% |        1552     42.42%    100.00%
system.ruby.L1Cache_Controller.EE.Fwd_GETS::total         3659                      
system.ruby.L1Cache_Controller.M.WriteBack |      321509      1.04%      1.04% |       66499      0.22%      1.26% |    30337712     98.29%     99.55% |      140173      0.45%    100.00%
system.ruby.L1Cache_Controller.M.WriteBack::total     30865893                      
system.ruby.L1Cache_Controller.M.L0_Invalidate_Own |        2698      6.79%      6.79% |         751      1.89%      8.68% |       35324     88.92%     97.60% |         953      2.40%    100.00%
system.ruby.L1Cache_Controller.M.L0_Invalidate_Own::total        39726                      
system.ruby.L1Cache_Controller.M.L0_Invalidate_Else |        4156     30.49%     30.49% |        4094     30.04%     60.53% |         923      6.77%     67.31% |        4456     32.69%    100.00%
system.ruby.L1Cache_Controller.M.L0_Invalidate_Else::total        13629                      
system.ruby.L1Cache_Controller.MM.Load   |      197137      1.05%      1.05% |       43814      0.23%      1.28% |    18486495     98.20%     99.48% |       98560      0.52%    100.00%
system.ruby.L1Cache_Controller.MM.Load::total     18826006                      
system.ruby.L1Cache_Controller.MM.Store  |       88626      1.03%      1.03% |       15071      0.18%      1.21% |     8468325     98.47%     99.67% |       28257      0.33%    100.00%
system.ruby.L1Cache_Controller.MM.Store::total      8600279                      
system.ruby.L1Cache_Controller.MM.Inv    |       10304     32.80%     32.80% |        8402     26.75%     59.55% |        3095      9.85%     69.41% |        9609     30.59%    100.00%
system.ruby.L1Cache_Controller.MM.Inv::total        31410                      
system.ruby.L1Cache_Controller.MM.L1_Replacement |      129098      1.40%      1.40% |       22613      0.25%      1.65% |     9026927     97.94%     99.58% |       38404      0.42%    100.00%
system.ruby.L1Cache_Controller.MM.L1_Replacement::total      9217042                      
system.ruby.L1Cache_Controller.MM.Fwd_GETX |        1009     33.15%     33.15% |         456     14.98%     48.13% |         650     21.35%     69.48% |         929     30.52%    100.00%
system.ruby.L1Cache_Controller.MM.Fwd_GETX::total         3044                      
system.ruby.L1Cache_Controller.MM.Fwd_GETS |        4386     24.29%     24.29% |        5852     32.41%     56.70% |        2207     12.22%     68.92% |        5613     31.08%    100.00%
system.ruby.L1Cache_Controller.MM.Fwd_GETS::total        18058                      
system.ruby.L1Cache_Controller.IS.Data_Exclusive |      104940      1.78%      1.78% |       28264      0.48%      2.26% |     5734271     97.09%     99.34% |       38797      0.66%    100.00%
system.ruby.L1Cache_Controller.IS.Data_Exclusive::total      5906272                      
system.ruby.L1Cache_Controller.IS.DataS_fromL1 |        7124     32.80%     32.80% |        3844     17.70%     50.50% |        4115     18.95%     69.45% |        6635     30.55%    100.00%
system.ruby.L1Cache_Controller.IS.DataS_fromL1::total        21718                      
system.ruby.L1Cache_Controller.IS.Data_all_Acks |       32308     11.62%     11.62% |       19081      6.86%     18.48% |      201887     72.62%     91.10% |       24733      8.90%    100.00%
system.ruby.L1Cache_Controller.IS.Data_all_Acks::total       278009                      
system.ruby.L1Cache_Controller.IM.Data   |         952     44.28%     44.28% |          68      3.16%     47.44% |         551     25.63%     73.07% |         579     26.93%    100.00%
system.ruby.L1Cache_Controller.IM.Data::total         2150                      
system.ruby.L1Cache_Controller.IM.Data_all_Acks |       38562      1.11%      1.11% |       11103      0.32%      1.43% |     3416924     98.09%     99.52% |       16751      0.48%    100.00%
system.ruby.L1Cache_Controller.IM.Data_all_Acks::total      3483340                      
system.ruby.L1Cache_Controller.SM.Inv    |           0      0.00%      0.00% |           0      0.00%      0.00% |           1     20.00%     20.00% |           4     80.00%    100.00%
system.ruby.L1Cache_Controller.SM.Inv::total            5                      
system.ruby.L1Cache_Controller.SM.Ack    |        7534     50.04%     50.04% |        1603     10.65%     60.69% |        3404     22.61%     83.30% |        2514     16.70%    100.00%
system.ruby.L1Cache_Controller.SM.Ack::total        15055                      
system.ruby.L1Cache_Controller.SM.Ack_all |        4041     42.08%     42.08% |        1344     14.00%     56.08% |        2204     22.95%     79.04% |        2013     20.96%    100.00%
system.ruby.L1Cache_Controller.SM.Ack_all::total         9602                      
system.ruby.L1Cache_Controller.M_I.Inv   |           0      0.00%      0.00% |           0      0.00%      0.00% |           1     50.00%     50.00% |           1     50.00%    100.00%
system.ruby.L1Cache_Controller.M_I.Inv::total            2                      
system.ruby.L1Cache_Controller.M_I.Fwd_GETS |           0      0.00%      0.00% |           0      0.00%      0.00% |           1    100.00%    100.00% |           0      0.00%    100.00%
system.ruby.L1Cache_Controller.M_I.Fwd_GETS::total            1                      
system.ruby.L1Cache_Controller.M_I.WB_Ack |      130848      1.40%      1.40% |       22754      0.24%      1.64% |     9147316     97.94%     99.59% |       38720      0.41%    100.00%
system.ruby.L1Cache_Controller.M_I.WB_Ack::total      9339638                      
system.ruby.L1Cache_Controller.SINK_WB_ACK.WB_Ack |           0      0.00%      0.00% |           0      0.00%      0.00% |           2     66.67%     66.67% |           1     33.33%    100.00%
system.ruby.L1Cache_Controller.SINK_WB_ACK.WB_Ack::total            3                      
system.ruby.L1Cache_Controller.S_IL0.L0_Invalidate_Own |       29768     10.85%     10.85% |       17495      6.38%     17.23% |      203568     74.20%     91.43% |       23506      8.57%    100.00%
system.ruby.L1Cache_Controller.S_IL0.L0_Invalidate_Own::total       274337                      
system.ruby.L1Cache_Controller.S_IL0.L0_Invalidate_Else |        8683     33.35%     33.35% |        7336     28.17%     61.52% |        1136      4.36%     65.88% |        8883     34.12%    100.00%
system.ruby.L1Cache_Controller.S_IL0.L0_Invalidate_Else::total        26038                      
system.ruby.L1Cache_Controller.S_IL0.L0_Ack |       38451     12.80%     12.80% |       24831      8.27%     21.07% |      204704     68.15%     89.22% |       32389     10.78%    100.00%
system.ruby.L1Cache_Controller.S_IL0.L0_Ack::total       300375                      
system.ruby.L1Cache_Controller.E_IL0.L0_DataAck |         242     15.12%     15.12% |         547     34.17%     49.28% |         154      9.62%     58.90% |         658     41.10%    100.00%
system.ruby.L1Cache_Controller.E_IL0.L0_DataAck::total         1601                      
system.ruby.L1Cache_Controller.E_IL0.L0_Invalidate_Own |        1819      1.48%      1.48% |         192      0.16%      1.64% |      120519     98.07%     99.71% |         362      0.29%    100.00%
system.ruby.L1Cache_Controller.E_IL0.L0_Invalidate_Own::total       122892                      
system.ruby.L1Cache_Controller.E_IL0.L0_Invalidate_Else |        1195     14.14%     14.14% |        3766     44.56%     58.70% |         156      1.85%     60.54% |        3335     39.46%    100.00%
system.ruby.L1Cache_Controller.E_IL0.L0_Invalidate_Else::total         8452                      
system.ruby.L1Cache_Controller.E_IL0.L0_Ack |        2772      2.14%      2.14% |        3411      2.63%      4.77% |      120521     92.89%     97.66% |        3038      2.34%    100.00%
system.ruby.L1Cache_Controller.E_IL0.L0_Ack::total       129742                      
system.ruby.L1Cache_Controller.M_IL0.L0_DataAck |        4625     23.05%     23.05% |        3530     17.59%     40.65% |        7786     38.81%     79.45% |        4122     20.55%    100.00%
system.ruby.L1Cache_Controller.M_IL0.L0_DataAck::total        20063                      
system.ruby.L1Cache_Controller.M_IL0.L0_Invalidate_Own |        2698      6.79%      6.79% |         751      1.89%      8.68% |       35324     88.92%     97.60% |         953      2.40%    100.00%
system.ruby.L1Cache_Controller.M_IL0.L0_Invalidate_Own::total        39726                      
system.ruby.L1Cache_Controller.M_IL0.L0_Invalidate_Else |        4156     30.49%     30.49% |        4094     30.04%     60.53% |         923      6.77%     67.31% |        4456     32.69%    100.00%
system.ruby.L1Cache_Controller.M_IL0.L0_Invalidate_Else::total        13629                      
system.ruby.L1Cache_Controller.M_IL0.L0_Ack |        2229      6.70%      6.70% |        1315      3.95%     10.65% |       28461     85.49%     96.13% |        1287      3.87%    100.00%
system.ruby.L1Cache_Controller.M_IL0.L0_Ack::total        33292                      
system.ruby.L2Cache_Controller.L1_GETS        6206205      0.00%      0.00%
system.ruby.L2Cache_Controller.L1_GETX        3485494      0.00%      0.00%
system.ruby.L2Cache_Controller.L1_UPGRADE         7457      0.00%      0.00%
system.ruby.L2Cache_Controller.L1_PUTX        9339640      0.00%      0.00%
system.ruby.L2Cache_Controller.L1_PUTX_old            4      0.00%      0.00%
system.ruby.L2Cache_Controller.L2_Replacement      1889645      0.00%      0.00%
system.ruby.L2Cache_Controller.L2_Replacement_clean      1131152      0.00%      0.00%
system.ruby.L2Cache_Controller.Mem_Data       3022483      0.00%      0.00%
system.ruby.L2Cache_Controller.Mem_Ack        3020799      0.00%      0.00%
system.ruby.L2Cache_Controller.WB_Data          24119      0.00%      0.00%
system.ruby.L2Cache_Controller.WB_Data_clean        29011      0.00%      0.00%
system.ruby.L2Cache_Controller.Ack              21718      0.00%      0.00%
system.ruby.L2Cache_Controller.Ack_all          15188      0.00%      0.00%
system.ruby.L2Cache_Controller.Unblock          21718      0.00%      0.00%
system.ruby.L2Cache_Controller.Exclusive_Unblock      9399215      0.00%      0.00%
system.ruby.L2Cache_Controller.MEM_Inv              4      0.00%      0.00%
system.ruby.L2Cache_Controller.NP.L1_GETS      1722961      0.00%      0.00%
system.ruby.L2Cache_Controller.NP.L1_GETX      1299522      0.00%      0.00%
system.ruby.L2Cache_Controller.NP.L1_PUTX_old            2      0.00%      0.00%
system.ruby.L2Cache_Controller.SS.L1_GETS       277965      0.00%      0.00%
system.ruby.L2Cache_Controller.SS.L1_GETX         2150      0.00%      0.00%
system.ruby.L2Cache_Controller.SS.L1_UPGRADE         7452      0.00%      0.00%
system.ruby.L2Cache_Controller.SS.L1_PUTX            1      0.00%      0.00%
system.ruby.L2Cache_Controller.SS.L2_Replacement          497      0.00%      0.00%
system.ruby.L2Cache_Controller.SS.L2_Replacement_clean        11222      0.00%      0.00%
system.ruby.L2Cache_Controller.M.L1_GETS      4183333      0.00%      0.00%
system.ruby.L2Cache_Controller.M.L1_GETX      2180759      0.00%      0.00%
system.ruby.L2Cache_Controller.M.L2_Replacement      1886467      0.00%      0.00%
system.ruby.L2Cache_Controller.M.L2_Replacement_clean      1087732      0.00%      0.00%
system.ruby.L2Cache_Controller.MT.L1_GETS        21718      0.00%      0.00%
system.ruby.L2Cache_Controller.MT.L1_GETX         3059      0.00%      0.00%
system.ruby.L2Cache_Controller.MT.L1_PUTX      9339638      0.00%      0.00%
system.ruby.L2Cache_Controller.MT.L2_Replacement         2681      0.00%      0.00%
system.ruby.L2Cache_Controller.MT.L2_Replacement_clean        32198      0.00%      0.00%
system.ruby.L2Cache_Controller.MT.MEM_Inv            2      0.00%      0.00%
system.ruby.L2Cache_Controller.M_I.L1_GETS            4      0.00%      0.00%
system.ruby.L2Cache_Controller.M_I.L1_GETX            1      0.00%      0.00%
system.ruby.L2Cache_Controller.M_I.Mem_Ack      3020799      0.00%      0.00%
system.ruby.L2Cache_Controller.MT_I.L1_PUTX_old            1      0.00%      0.00%
system.ruby.L2Cache_Controller.MT_I.WB_Data         1982      0.00%      0.00%
system.ruby.L2Cache_Controller.MT_I.WB_Data_clean          367      0.00%      0.00%
system.ruby.L2Cache_Controller.MT_I.Ack_all          334      0.00%      0.00%
system.ruby.L2Cache_Controller.MT_I.MEM_Inv            2      0.00%      0.00%
system.ruby.L2Cache_Controller.MCT_I.L1_PUTX_old            1      0.00%      0.00%
system.ruby.L2Cache_Controller.MCT_I.WB_Data        15739      0.00%      0.00%
system.ruby.L2Cache_Controller.MCT_I.WB_Data_clean        13324      0.00%      0.00%
system.ruby.L2Cache_Controller.MCT_I.Ack_all         3135      0.00%      0.00%
system.ruby.L2Cache_Controller.I_I.Ack          21159      0.00%      0.00%
system.ruby.L2Cache_Controller.I_I.Ack_all        11222      0.00%      0.00%
system.ruby.L2Cache_Controller.S_I.Ack            559      0.00%      0.00%
system.ruby.L2Cache_Controller.S_I.Ack_all          497      0.00%      0.00%
system.ruby.L2Cache_Controller.ISS.L1_GETS           22      0.00%      0.00%
system.ruby.L2Cache_Controller.ISS.Mem_Data      1722939      0.00%      0.00%
system.ruby.L2Cache_Controller.IS.Mem_Data           22      0.00%      0.00%
system.ruby.L2Cache_Controller.IM.Mem_Data      1299522      0.00%      0.00%
system.ruby.L2Cache_Controller.SS_MB.L1_GETS           75      0.00%      0.00%
system.ruby.L2Cache_Controller.SS_MB.L1_GETX            1      0.00%      0.00%
system.ruby.L2Cache_Controller.SS_MB.L1_UPGRADE            5      0.00%      0.00%
system.ruby.L2Cache_Controller.SS_MB.Exclusive_Unblock         9602      0.00%      0.00%
system.ruby.L2Cache_Controller.MT_MB.L1_GETS          126      0.00%      0.00%
system.ruby.L2Cache_Controller.MT_MB.L1_GETX            2      0.00%      0.00%
system.ruby.L2Cache_Controller.MT_MB.Exclusive_Unblock      9389613      0.00%      0.00%
system.ruby.L2Cache_Controller.MT_IIB.L1_GETS            1      0.00%      0.00%
system.ruby.L2Cache_Controller.MT_IIB.L1_PUTX            1      0.00%      0.00%
system.ruby.L2Cache_Controller.MT_IIB.WB_Data         6391      0.00%      0.00%
system.ruby.L2Cache_Controller.MT_IIB.WB_Data_clean        15297      0.00%      0.00%
system.ruby.L2Cache_Controller.MT_IIB.Unblock           30      0.00%      0.00%
system.ruby.L2Cache_Controller.MT_IB.WB_Data            7      0.00%      0.00%
system.ruby.L2Cache_Controller.MT_IB.WB_Data_clean           23      0.00%      0.00%
system.ruby.L2Cache_Controller.MT_SB.Unblock        21688      0.00%      0.00%

---------- End Simulation Statistics   ----------
