
---------- Begin Simulation Statistics ----------
sim_seconds                                  0.809549                       # Number of seconds simulated
sim_ticks                                809548890500                       # Number of ticks simulated
final_tick                               54321651612001                       # Number of ticks from beginning of simulation (restored from checkpoints and never reset)
sim_freq                                 1000000000000                       # Frequency of simulated ticks
host_inst_rate                                 105520                       # Simulator instruction rate (inst/s)
host_op_rate                                   174745                       # Simulator op (including micro ops) rate (op/s)
host_tick_rate                              305313473                       # Simulator tick rate (ticks/s)
host_mem_usage                                1874176                       # Number of bytes of host memory used
host_seconds                                  2651.53                       # Real time elapsed on the host
sim_insts                                   279791001                       # Number of instructions simulated
sim_ops                                     463341330                       # Number of ops (including micro ops) simulated
system.voltage_domain.voltage                       1                       # Voltage in Volts
system.clk_domain.clock                          1000                       # Clock period in ticks
system.mem_ctrls0.bytes_read::ruby.dir_cntrl0     61012352                       # Number of bytes read from this memory
system.mem_ctrls0.bytes_read::total          61012352                       # Number of bytes read from this memory
system.mem_ctrls0.bytes_written::ruby.dir_cntrl0     32646080                       # Number of bytes written to this memory
system.mem_ctrls0.bytes_written::total       32646080                       # Number of bytes written to this memory
system.mem_ctrls0.num_reads::ruby.dir_cntrl0       953318                       # Number of read requests responded to by this memory
system.mem_ctrls0.num_reads::total             953318                       # Number of read requests responded to by this memory
system.mem_ctrls0.num_writes::ruby.dir_cntrl0       510095                       # Number of write requests responded to by this memory
system.mem_ctrls0.num_writes::total            510095                       # Number of write requests responded to by this memory
system.mem_ctrls0.bw_read::ruby.dir_cntrl0     75365865                       # Total read bandwidth from this memory (bytes/s)
system.mem_ctrls0.bw_read::total             75365865                       # Total read bandwidth from this memory (bytes/s)
system.mem_ctrls0.bw_write::ruby.dir_cntrl0     40326261                       # Write bandwidth from this memory (bytes/s)
system.mem_ctrls0.bw_write::total            40326261                       # Write bandwidth from this memory (bytes/s)
system.mem_ctrls0.bw_total::ruby.dir_cntrl0    115692126                       # Total bandwidth to/from this memory (bytes/s)
system.mem_ctrls0.bw_total::total           115692126                       # Total bandwidth to/from this memory (bytes/s)
system.mem_ctrls0.readReqs                     953318                       # Number of read requests accepted
system.mem_ctrls0.writeReqs                    510095                       # Number of write requests accepted
system.mem_ctrls0.readBursts                   953318                       # Number of DRAM read bursts, including those serviced by the write queue
system.mem_ctrls0.writeBursts                  510095                       # Number of DRAM write bursts, including those merged in the write queue
system.mem_ctrls0.bytesReadDRAM              60958464                       # Total number of bytes read from DRAM
system.mem_ctrls0.bytesReadWrQ                  53888                       # Total number of bytes read from write queue
system.mem_ctrls0.bytesWritten               32645248                       # Total number of bytes written to DRAM
system.mem_ctrls0.bytesReadSys               61012352                       # Total read bytes from the system interface side
system.mem_ctrls0.bytesWrittenSys            32646080                       # Total written bytes from the system interface side
system.mem_ctrls0.servicedByWrQ                   842                       # Number of DRAM read bursts serviced by the write queue
system.mem_ctrls0.mergedWrBursts                   11                       # Number of DRAM write bursts merged with an existing one
system.mem_ctrls0.neitherReadNorWriteReqs            0                       # Number of requests that are neither read nor write
system.mem_ctrls0.perBankRdBursts::0            61442                       # Per bank write bursts
system.mem_ctrls0.perBankRdBursts::1            64651                       # Per bank write bursts
system.mem_ctrls0.perBankRdBursts::2            60576                       # Per bank write bursts
system.mem_ctrls0.perBankRdBursts::3            60394                       # Per bank write bursts
system.mem_ctrls0.perBankRdBursts::4            64399                       # Per bank write bursts
system.mem_ctrls0.perBankRdBursts::5            58549                       # Per bank write bursts
system.mem_ctrls0.perBankRdBursts::6            57689                       # Per bank write bursts
system.mem_ctrls0.perBankRdBursts::7            54538                       # Per bank write bursts
system.mem_ctrls0.perBankRdBursts::8            55365                       # Per bank write bursts
system.mem_ctrls0.perBankRdBursts::9            56379                       # Per bank write bursts
system.mem_ctrls0.perBankRdBursts::10           57597                       # Per bank write bursts
system.mem_ctrls0.perBankRdBursts::11           56074                       # Per bank write bursts
system.mem_ctrls0.perBankRdBursts::12           62960                       # Per bank write bursts
system.mem_ctrls0.perBankRdBursts::13           61944                       # Per bank write bursts
system.mem_ctrls0.perBankRdBursts::14           59323                       # Per bank write bursts
system.mem_ctrls0.perBankRdBursts::15           60596                       # Per bank write bursts
system.mem_ctrls0.perBankWrBursts::0            32075                       # Per bank write bursts
system.mem_ctrls0.perBankWrBursts::1            34236                       # Per bank write bursts
system.mem_ctrls0.perBankWrBursts::2            31411                       # Per bank write bursts
system.mem_ctrls0.perBankWrBursts::3            30235                       # Per bank write bursts
system.mem_ctrls0.perBankWrBursts::4            34083                       # Per bank write bursts
system.mem_ctrls0.perBankWrBursts::5            32911                       # Per bank write bursts
system.mem_ctrls0.perBankWrBursts::6            32916                       # Per bank write bursts
system.mem_ctrls0.perBankWrBursts::7            31767                       # Per bank write bursts
system.mem_ctrls0.perBankWrBursts::8            31067                       # Per bank write bursts
system.mem_ctrls0.perBankWrBursts::9            31604                       # Per bank write bursts
system.mem_ctrls0.perBankWrBursts::10           31165                       # Per bank write bursts
system.mem_ctrls0.perBankWrBursts::11           31272                       # Per bank write bursts
system.mem_ctrls0.perBankWrBursts::12           32310                       # Per bank write bursts
system.mem_ctrls0.perBankWrBursts::13           31204                       # Per bank write bursts
system.mem_ctrls0.perBankWrBursts::14           31050                       # Per bank write bursts
system.mem_ctrls0.perBankWrBursts::15           30776                       # Per bank write bursts
system.mem_ctrls0.numRdRetry                        0                       # Number of times read queue was full causing retry
system.mem_ctrls0.numWrRetry                        0                       # Number of times write queue was full causing retry
system.mem_ctrls0.totGap                 809548589500                       # Total gap between requests
system.mem_ctrls0.readPktSize::0                    0                       # Read request sizes (log2)
system.mem_ctrls0.readPktSize::1                    0                       # Read request sizes (log2)
system.mem_ctrls0.readPktSize::2                    0                       # Read request sizes (log2)
system.mem_ctrls0.readPktSize::3                    0                       # Read request sizes (log2)
system.mem_ctrls0.readPktSize::4                    0                       # Read request sizes (log2)
system.mem_ctrls0.readPktSize::5                    0                       # Read request sizes (log2)
system.mem_ctrls0.readPktSize::6               953318                       # Read request sizes (log2)
system.mem_ctrls0.writePktSize::0                   0                       # Write request sizes (log2)
system.mem_ctrls0.writePktSize::1                   0                       # Write request sizes (log2)
system.mem_ctrls0.writePktSize::2                   0                       # Write request sizes (log2)
system.mem_ctrls0.writePktSize::3                   0                       # Write request sizes (log2)
system.mem_ctrls0.writePktSize::4                   0                       # Write request sizes (log2)
system.mem_ctrls0.writePktSize::5                   0                       # Write request sizes (log2)
system.mem_ctrls0.writePktSize::6              510095                       # Write request sizes (log2)
system.mem_ctrls0.rdQLenPdf::0                 950064                       # What read queue length does an incoming req see
system.mem_ctrls0.rdQLenPdf::1                   2410                       # What read queue length does an incoming req see
system.mem_ctrls0.rdQLenPdf::2                      2                       # What read queue length does an incoming req see
system.mem_ctrls0.rdQLenPdf::3                      0                       # What read queue length does an incoming req see
system.mem_ctrls0.rdQLenPdf::4                      0                       # What read queue length does an incoming req see
system.mem_ctrls0.rdQLenPdf::5                      0                       # What read queue length does an incoming req see
system.mem_ctrls0.rdQLenPdf::6                      0                       # What read queue length does an incoming req see
system.mem_ctrls0.rdQLenPdf::7                      0                       # What read queue length does an incoming req see
system.mem_ctrls0.rdQLenPdf::8                      0                       # What read queue length does an incoming req see
system.mem_ctrls0.rdQLenPdf::9                      0                       # What read queue length does an incoming req see
system.mem_ctrls0.rdQLenPdf::10                     0                       # What read queue length does an incoming req see
system.mem_ctrls0.rdQLenPdf::11                     0                       # What read queue length does an incoming req see
system.mem_ctrls0.rdQLenPdf::12                     0                       # What read queue length does an incoming req see
system.mem_ctrls0.rdQLenPdf::13                     0                       # What read queue length does an incoming req see
system.mem_ctrls0.rdQLenPdf::14                     0                       # What read queue length does an incoming req see
system.mem_ctrls0.rdQLenPdf::15                     0                       # What read queue length does an incoming req see
system.mem_ctrls0.rdQLenPdf::16                     0                       # What read queue length does an incoming req see
system.mem_ctrls0.rdQLenPdf::17                     0                       # What read queue length does an incoming req see
system.mem_ctrls0.rdQLenPdf::18                     0                       # What read queue length does an incoming req see
system.mem_ctrls0.rdQLenPdf::19                     0                       # What read queue length does an incoming req see
system.mem_ctrls0.rdQLenPdf::20                     0                       # What read queue length does an incoming req see
system.mem_ctrls0.rdQLenPdf::21                     0                       # What read queue length does an incoming req see
system.mem_ctrls0.rdQLenPdf::22                     0                       # What read queue length does an incoming req see
system.mem_ctrls0.rdQLenPdf::23                     0                       # What read queue length does an incoming req see
system.mem_ctrls0.rdQLenPdf::24                     0                       # What read queue length does an incoming req see
system.mem_ctrls0.rdQLenPdf::25                     0                       # What read queue length does an incoming req see
system.mem_ctrls0.rdQLenPdf::26                     0                       # What read queue length does an incoming req see
system.mem_ctrls0.rdQLenPdf::27                     0                       # What read queue length does an incoming req see
system.mem_ctrls0.rdQLenPdf::28                     0                       # What read queue length does an incoming req see
system.mem_ctrls0.rdQLenPdf::29                     0                       # What read queue length does an incoming req see
system.mem_ctrls0.rdQLenPdf::30                     0                       # What read queue length does an incoming req see
system.mem_ctrls0.rdQLenPdf::31                     0                       # What read queue length does an incoming req see
system.mem_ctrls0.wrQLenPdf::0                      0                       # What write queue length does an incoming req see
system.mem_ctrls0.wrQLenPdf::1                      0                       # What write queue length does an incoming req see
system.mem_ctrls0.wrQLenPdf::2                      0                       # What write queue length does an incoming req see
system.mem_ctrls0.wrQLenPdf::3                      0                       # What write queue length does an incoming req see
system.mem_ctrls0.wrQLenPdf::4                      0                       # What write queue length does an incoming req see
system.mem_ctrls0.wrQLenPdf::5                      0                       # What write queue length does an incoming req see
system.mem_ctrls0.wrQLenPdf::6                      0                       # What write queue length does an incoming req see
system.mem_ctrls0.wrQLenPdf::7                      0                       # What write queue length does an incoming req see
system.mem_ctrls0.wrQLenPdf::8                      0                       # What write queue length does an incoming req see
system.mem_ctrls0.wrQLenPdf::9                      0                       # What write queue length does an incoming req see
system.mem_ctrls0.wrQLenPdf::10                     0                       # What write queue length does an incoming req see
system.mem_ctrls0.wrQLenPdf::11                     0                       # What write queue length does an incoming req see
system.mem_ctrls0.wrQLenPdf::12                     0                       # What write queue length does an incoming req see
system.mem_ctrls0.wrQLenPdf::13                     0                       # What write queue length does an incoming req see
system.mem_ctrls0.wrQLenPdf::14                     0                       # What write queue length does an incoming req see
system.mem_ctrls0.wrQLenPdf::15                  1030                       # What write queue length does an incoming req see
system.mem_ctrls0.wrQLenPdf::16                  1068                       # What write queue length does an incoming req see
system.mem_ctrls0.wrQLenPdf::17                 31716                       # What write queue length does an incoming req see
system.mem_ctrls0.wrQLenPdf::18                 31762                       # What write queue length does an incoming req see
system.mem_ctrls0.wrQLenPdf::19                 31754                       # What write queue length does an incoming req see
system.mem_ctrls0.wrQLenPdf::20                 31750                       # What write queue length does an incoming req see
system.mem_ctrls0.wrQLenPdf::21                 31754                       # What write queue length does an incoming req see
system.mem_ctrls0.wrQLenPdf::22                 31750                       # What write queue length does an incoming req see
system.mem_ctrls0.wrQLenPdf::23                 31751                       # What write queue length does an incoming req see
system.mem_ctrls0.wrQLenPdf::24                 31753                       # What write queue length does an incoming req see
system.mem_ctrls0.wrQLenPdf::25                 31749                       # What write queue length does an incoming req see
system.mem_ctrls0.wrQLenPdf::26                 31752                       # What write queue length does an incoming req see
system.mem_ctrls0.wrQLenPdf::27                 31748                       # What write queue length does an incoming req see
system.mem_ctrls0.wrQLenPdf::28                 31753                       # What write queue length does an incoming req see
system.mem_ctrls0.wrQLenPdf::29                 31749                       # What write queue length does an incoming req see
system.mem_ctrls0.wrQLenPdf::30                 31748                       # What write queue length does an incoming req see
system.mem_ctrls0.wrQLenPdf::31                 31747                       # What write queue length does an incoming req see
system.mem_ctrls0.wrQLenPdf::32                 31747                       # What write queue length does an incoming req see
system.mem_ctrls0.wrQLenPdf::33                     2                       # What write queue length does an incoming req see
system.mem_ctrls0.wrQLenPdf::34                     1                       # What write queue length does an incoming req see
system.mem_ctrls0.wrQLenPdf::35                     0                       # What write queue length does an incoming req see
system.mem_ctrls0.wrQLenPdf::36                     0                       # What write queue length does an incoming req see
system.mem_ctrls0.wrQLenPdf::37                     0                       # What write queue length does an incoming req see
system.mem_ctrls0.wrQLenPdf::38                     0                       # What write queue length does an incoming req see
system.mem_ctrls0.wrQLenPdf::39                     0                       # What write queue length does an incoming req see
system.mem_ctrls0.wrQLenPdf::40                     0                       # What write queue length does an incoming req see
system.mem_ctrls0.wrQLenPdf::41                     0                       # What write queue length does an incoming req see
system.mem_ctrls0.wrQLenPdf::42                     0                       # What write queue length does an incoming req see
system.mem_ctrls0.wrQLenPdf::43                     0                       # What write queue length does an incoming req see
system.mem_ctrls0.wrQLenPdf::44                     0                       # What write queue length does an incoming req see
system.mem_ctrls0.wrQLenPdf::45                     0                       # What write queue length does an incoming req see
system.mem_ctrls0.wrQLenPdf::46                     0                       # What write queue length does an incoming req see
system.mem_ctrls0.wrQLenPdf::47                     0                       # What write queue length does an incoming req see
system.mem_ctrls0.wrQLenPdf::48                     0                       # What write queue length does an incoming req see
system.mem_ctrls0.wrQLenPdf::49                     0                       # What write queue length does an incoming req see
system.mem_ctrls0.wrQLenPdf::50                     0                       # What write queue length does an incoming req see
system.mem_ctrls0.wrQLenPdf::51                     0                       # What write queue length does an incoming req see
system.mem_ctrls0.wrQLenPdf::52                     0                       # What write queue length does an incoming req see
system.mem_ctrls0.wrQLenPdf::53                     0                       # What write queue length does an incoming req see
system.mem_ctrls0.wrQLenPdf::54                     0                       # What write queue length does an incoming req see
system.mem_ctrls0.wrQLenPdf::55                     0                       # What write queue length does an incoming req see
system.mem_ctrls0.wrQLenPdf::56                     0                       # What write queue length does an incoming req see
system.mem_ctrls0.wrQLenPdf::57                     0                       # What write queue length does an incoming req see
system.mem_ctrls0.wrQLenPdf::58                     0                       # What write queue length does an incoming req see
system.mem_ctrls0.wrQLenPdf::59                     0                       # What write queue length does an incoming req see
system.mem_ctrls0.wrQLenPdf::60                     0                       # What write queue length does an incoming req see
system.mem_ctrls0.wrQLenPdf::61                     0                       # What write queue length does an incoming req see
system.mem_ctrls0.wrQLenPdf::62                     0                       # What write queue length does an incoming req see
system.mem_ctrls0.wrQLenPdf::63                     0                       # What write queue length does an incoming req see
system.mem_ctrls0.bytesPerActivate::samples      1362201                       # Bytes accessed per row activation
system.mem_ctrls0.bytesPerActivate::mean    68.715052                       # Bytes accessed per row activation
system.mem_ctrls0.bytesPerActivate::gmean    66.847686                       # Bytes accessed per row activation
system.mem_ctrls0.bytesPerActivate::stdev    29.809152                       # Bytes accessed per row activation
system.mem_ctrls0.bytesPerActivate::0-127      1284886     94.32%     94.32% # Bytes accessed per row activation
system.mem_ctrls0.bytesPerActivate::128-255        74605      5.48%     99.80% # Bytes accessed per row activation
system.mem_ctrls0.bytesPerActivate::256-383         1175      0.09%     99.89% # Bytes accessed per row activation
system.mem_ctrls0.bytesPerActivate::384-511          296      0.02%     99.91% # Bytes accessed per row activation
system.mem_ctrls0.bytesPerActivate::512-639          212      0.02%     99.92% # Bytes accessed per row activation
system.mem_ctrls0.bytesPerActivate::640-767          272      0.02%     99.94% # Bytes accessed per row activation
system.mem_ctrls0.bytesPerActivate::768-895          115      0.01%     99.95% # Bytes accessed per row activation
system.mem_ctrls0.bytesPerActivate::896-1023          102      0.01%     99.96% # Bytes accessed per row activation
system.mem_ctrls0.bytesPerActivate::1024-1151          538      0.04%    100.00% # Bytes accessed per row activation
system.mem_ctrls0.bytesPerActivate::total      1362201                       # Bytes accessed per row activation
system.mem_ctrls0.rdPerTurnAround::samples        31747                       # Reads before turning the bus around for writes
system.mem_ctrls0.rdPerTurnAround::mean     30.002929                       # Reads before turning the bus around for writes
system.mem_ctrls0.rdPerTurnAround::stdev     8.594406                       # Reads before turning the bus around for writes
system.mem_ctrls0.rdPerTurnAround::0-7             31      0.10%      0.10% # Reads before turning the bus around for writes
system.mem_ctrls0.rdPerTurnAround::8-15             2      0.01%      0.10% # Reads before turning the bus around for writes
system.mem_ctrls0.rdPerTurnAround::16-23         3062      9.65%      9.75% # Reads before turning the bus around for writes
system.mem_ctrls0.rdPerTurnAround::24-31        18285     57.60%     67.34% # Reads before turning the bus around for writes
system.mem_ctrls0.rdPerTurnAround::32-39         9071     28.57%     95.92% # Reads before turning the bus around for writes
system.mem_ctrls0.rdPerTurnAround::40-47         1055      3.32%     99.24% # Reads before turning the bus around for writes
system.mem_ctrls0.rdPerTurnAround::48-55           91      0.29%     99.53% # Reads before turning the bus around for writes
system.mem_ctrls0.rdPerTurnAround::56-63           11      0.03%     99.56% # Reads before turning the bus around for writes
system.mem_ctrls0.rdPerTurnAround::64-71            7      0.02%     99.58% # Reads before turning the bus around for writes
system.mem_ctrls0.rdPerTurnAround::72-79            7      0.02%     99.61% # Reads before turning the bus around for writes
system.mem_ctrls0.rdPerTurnAround::80-87            7      0.02%     99.63% # Reads before turning the bus around for writes
system.mem_ctrls0.rdPerTurnAround::88-95            6      0.02%     99.65% # Reads before turning the bus around for writes
system.mem_ctrls0.rdPerTurnAround::96-103           10      0.03%     99.68% # Reads before turning the bus around for writes
system.mem_ctrls0.rdPerTurnAround::104-111            6      0.02%     99.70% # Reads before turning the bus around for writes
system.mem_ctrls0.rdPerTurnAround::112-119           14      0.04%     99.74% # Reads before turning the bus around for writes
system.mem_ctrls0.rdPerTurnAround::120-127           16      0.05%     99.79% # Reads before turning the bus around for writes
system.mem_ctrls0.rdPerTurnAround::128-135           13      0.04%     99.83% # Reads before turning the bus around for writes
system.mem_ctrls0.rdPerTurnAround::136-143            6      0.02%     99.85% # Reads before turning the bus around for writes
system.mem_ctrls0.rdPerTurnAround::144-151           11      0.03%     99.89% # Reads before turning the bus around for writes
system.mem_ctrls0.rdPerTurnAround::152-159           17      0.05%     99.94% # Reads before turning the bus around for writes
system.mem_ctrls0.rdPerTurnAround::160-167            5      0.02%     99.96% # Reads before turning the bus around for writes
system.mem_ctrls0.rdPerTurnAround::176-183            4      0.01%     99.97% # Reads before turning the bus around for writes
system.mem_ctrls0.rdPerTurnAround::184-191            3      0.01%     99.98% # Reads before turning the bus around for writes
system.mem_ctrls0.rdPerTurnAround::192-199            1      0.00%     99.98% # Reads before turning the bus around for writes
system.mem_ctrls0.rdPerTurnAround::200-207            3      0.01%     99.99% # Reads before turning the bus around for writes
system.mem_ctrls0.rdPerTurnAround::208-215            1      0.00%     99.99% # Reads before turning the bus around for writes
system.mem_ctrls0.rdPerTurnAround::216-223            1      0.00%    100.00% # Reads before turning the bus around for writes
system.mem_ctrls0.rdPerTurnAround::240-247            1      0.00%    100.00% # Reads before turning the bus around for writes
system.mem_ctrls0.rdPerTurnAround::total        31747                       # Reads before turning the bus around for writes
system.mem_ctrls0.wrPerTurnAround::samples        31747                       # Writes before turning the bus around for reads
system.mem_ctrls0.wrPerTurnAround::mean     16.067093                       # Writes before turning the bus around for reads
system.mem_ctrls0.wrPerTurnAround::gmean    16.063313                       # Writes before turning the bus around for reads
system.mem_ctrls0.wrPerTurnAround::stdev     0.362042                       # Writes before turning the bus around for reads
system.mem_ctrls0.wrPerTurnAround::16           30678     96.63%     96.63% # Writes before turning the bus around for reads
system.mem_ctrls0.wrPerTurnAround::17              26      0.08%     96.71% # Writes before turning the bus around for reads
system.mem_ctrls0.wrPerTurnAround::18            1030      3.24%     99.96% # Writes before turning the bus around for reads
system.mem_ctrls0.wrPerTurnAround::19              10      0.03%     99.99% # Writes before turning the bus around for reads
system.mem_ctrls0.wrPerTurnAround::20               2      0.01%    100.00% # Writes before turning the bus around for reads
system.mem_ctrls0.wrPerTurnAround::22               1      0.00%    100.00% # Writes before turning the bus around for reads
system.mem_ctrls0.wrPerTurnAround::total        31747                       # Writes before turning the bus around for reads
system.mem_ctrls0.totQLat                 22409534216                       # Total ticks spent queuing
system.mem_ctrls0.totMemAccLat            40268459216                       # Total ticks spent from burst creation until serviced by the DRAM
system.mem_ctrls0.totBusLat                4762380000                       # Total ticks spent in databus transfers
system.mem_ctrls0.avgQLat                    23527.66                       # Average queueing delay per DRAM burst
system.mem_ctrls0.avgBusLat                   5000.00                       # Average bus latency per DRAM burst
system.mem_ctrls0.avgMemAccLat               42277.66                       # Average memory access latency per DRAM burst
system.mem_ctrls0.avgRdBW                       75.30                       # Average DRAM read bandwidth in MiByte/s
system.mem_ctrls0.avgWrBW                       40.33                       # Average achieved write bandwidth in MiByte/s
system.mem_ctrls0.avgRdBWSys                    75.37                       # Average system read bandwidth in MiByte/s
system.mem_ctrls0.avgWrBWSys                    40.33                       # Average system write bandwidth in MiByte/s
system.mem_ctrls0.peakBW                     12800.00                       # Theoretical peak bandwidth in MiByte/s
system.mem_ctrls0.busUtil                        0.90                       # Data bus utilization in percentage
system.mem_ctrls0.busUtilRead                    0.59                       # Data bus utilization in percentage for reads
system.mem_ctrls0.busUtilWrite                   0.32                       # Data bus utilization in percentage for writes
system.mem_ctrls0.avgRdQLen                      1.00                       # Average read queue length when enqueuing
system.mem_ctrls0.avgWrQLen                     25.49                       # Average write queue length when enqueuing
system.mem_ctrls0.readRowHits                   41079                       # Number of row buffer hits during reads
system.mem_ctrls0.writeRowHits                  59278                       # Number of row buffer hits during writes
system.mem_ctrls0.readRowHitRate                 4.31                       # Row buffer hit rate for reads
system.mem_ctrls0.writeRowHitRate               11.62                       # Row buffer hit rate for writes
system.mem_ctrls0.avgGap                    553192.15                       # Average gap between requests
system.mem_ctrls0.pageHitRate                    6.86                       # Row buffer hit rate, read and write combined
system.mem_ctrls0_0.actEnergy              5218720920                       # Energy for activate commands per rank (pJ)
system.mem_ctrls0_0.preEnergy              2847516375                       # Energy for precharge commands per rank (pJ)
system.mem_ctrls0_0.readEnergy             3787017000                       # Energy for read commands per rank (pJ)
system.mem_ctrls0_0.writeEnergy            1683160560                       # Energy for write commands per rank (pJ)
system.mem_ctrls0_0.refreshEnergy         53373880560                       # Energy for refresh commands per rank (pJ)
system.mem_ctrls0_0.actBackEnergy        442082720115                       # Energy for active background per rank (pJ)
system.mem_ctrls0_0.preBackEnergy        102513130500                       # Energy for precharge background per rank (pJ)
system.mem_ctrls0_0.totalEnergy          611506146030                       # Total energy per rank (pJ)
system.mem_ctrls0_0.averagePower           748.317262                       # Core power per rank (mW)
system.mem_ctrls0_0.memoryStateTime::IDLE 163362208751                       # Time in different power states
system.mem_ctrls0_0.memoryStateTime::REF  27032460000                       # Time in different power states
system.mem_ctrls0_0.memoryStateTime::PRE_PDN            0                       # Time in different power states
system.mem_ctrls0_0.memoryStateTime::ACT 619149529999                       # Time in different power states
system.mem_ctrls0_0.memoryStateTime::ACT_PDN            0                       # Time in different power states
system.mem_ctrls0_1.actEnergy              5098252320                       # Energy for activate commands per rank (pJ)
system.mem_ctrls0_1.preEnergy              2781784500                       # Energy for precharge commands per rank (pJ)
system.mem_ctrls0_1.readEnergy             3696693000                       # Energy for read commands per rank (pJ)
system.mem_ctrls0_1.writeEnergy            1623726000                       # Energy for write commands per rank (pJ)
system.mem_ctrls0_1.refreshEnergy         53373880560                       # Energy for refresh commands per rank (pJ)
system.mem_ctrls0_1.actBackEnergy        442445720625                       # Energy for active background per rank (pJ)
system.mem_ctrls0_1.preBackEnergy        102194709000                       # Energy for precharge background per rank (pJ)
system.mem_ctrls0_1.totalEnergy          611214766005                       # Total energy per rank (pJ)
system.mem_ctrls0_1.averagePower           747.960692                       # Core power per rank (mW)
system.mem_ctrls0_1.memoryStateTime::IDLE 163540296500                       # Time in different power states
system.mem_ctrls0_1.memoryStateTime::REF  27032460000                       # Time in different power states
system.mem_ctrls0_1.memoryStateTime::PRE_PDN            0                       # Time in different power states
system.mem_ctrls0_1.memoryStateTime::ACT 618971442250                       # Time in different power states
system.mem_ctrls0_1.memoryStateTime::ACT_PDN            0                       # Time in different power states
system.mem_ctrls1.bytes_read::ruby.dir_cntrl1     60816128                       # Number of bytes read from this memory
system.mem_ctrls1.bytes_read::total          60816128                       # Number of bytes read from this memory
system.mem_ctrls1.bytes_written::ruby.dir_cntrl1     32583552                       # Number of bytes written to this memory
system.mem_ctrls1.bytes_written::total       32583552                       # Number of bytes written to this memory
system.mem_ctrls1.num_reads::ruby.dir_cntrl1       950252                       # Number of read requests responded to by this memory
system.mem_ctrls1.num_reads::total             950252                       # Number of read requests responded to by this memory
system.mem_ctrls1.num_writes::ruby.dir_cntrl1       509118                       # Number of write requests responded to by this memory
system.mem_ctrls1.num_writes::total            509118                       # Number of write requests responded to by this memory
system.mem_ctrls1.bw_read::ruby.dir_cntrl1     75123478                       # Total read bandwidth from this memory (bytes/s)
system.mem_ctrls1.bw_read::total             75123478                       # Total read bandwidth from this memory (bytes/s)
system.mem_ctrls1.bw_write::ruby.dir_cntrl1     40249023                       # Write bandwidth from this memory (bytes/s)
system.mem_ctrls1.bw_write::total            40249023                       # Write bandwidth from this memory (bytes/s)
system.mem_ctrls1.bw_total::ruby.dir_cntrl1    115372501                       # Total bandwidth to/from this memory (bytes/s)
system.mem_ctrls1.bw_total::total           115372501                       # Total bandwidth to/from this memory (bytes/s)
system.mem_ctrls1.readReqs                     950252                       # Number of read requests accepted
system.mem_ctrls1.writeReqs                    509118                       # Number of write requests accepted
system.mem_ctrls1.readBursts                   950252                       # Number of DRAM read bursts, including those serviced by the write queue
system.mem_ctrls1.writeBursts                  509118                       # Number of DRAM write bursts, including those merged in the write queue
system.mem_ctrls1.bytesReadDRAM              60769280                       # Total number of bytes read from DRAM
system.mem_ctrls1.bytesReadWrQ                  46848                       # Total number of bytes read from write queue
system.mem_ctrls1.bytesWritten               32582976                       # Total number of bytes written to DRAM
system.mem_ctrls1.bytesReadSys               60816128                       # Total read bytes from the system interface side
system.mem_ctrls1.bytesWrittenSys            32583552                       # Total written bytes from the system interface side
system.mem_ctrls1.servicedByWrQ                   732                       # Number of DRAM read bursts serviced by the write queue
system.mem_ctrls1.mergedWrBursts                    0                       # Number of DRAM write bursts merged with an existing one
system.mem_ctrls1.neitherReadNorWriteReqs            0                       # Number of requests that are neither read nor write
system.mem_ctrls1.perBankRdBursts::0            61731                       # Per bank write bursts
system.mem_ctrls1.perBankRdBursts::1            62980                       # Per bank write bursts
system.mem_ctrls1.perBankRdBursts::2            60368                       # Per bank write bursts
system.mem_ctrls1.perBankRdBursts::3            60257                       # Per bank write bursts
system.mem_ctrls1.perBankRdBursts::4            64364                       # Per bank write bursts
system.mem_ctrls1.perBankRdBursts::5            58472                       # Per bank write bursts
system.mem_ctrls1.perBankRdBursts::6            57418                       # Per bank write bursts
system.mem_ctrls1.perBankRdBursts::7            54135                       # Per bank write bursts
system.mem_ctrls1.perBankRdBursts::8            56422                       # Per bank write bursts
system.mem_ctrls1.perBankRdBursts::9            56928                       # Per bank write bursts
system.mem_ctrls1.perBankRdBursts::10           57904                       # Per bank write bursts
system.mem_ctrls1.perBankRdBursts::11           55891                       # Per bank write bursts
system.mem_ctrls1.perBankRdBursts::12           61616                       # Per bank write bursts
system.mem_ctrls1.perBankRdBursts::13           61426                       # Per bank write bursts
system.mem_ctrls1.perBankRdBursts::14           59731                       # Per bank write bursts
system.mem_ctrls1.perBankRdBursts::15           59877                       # Per bank write bursts
system.mem_ctrls1.perBankWrBursts::0            32319                       # Per bank write bursts
system.mem_ctrls1.perBankWrBursts::1            33130                       # Per bank write bursts
system.mem_ctrls1.perBankWrBursts::2            31316                       # Per bank write bursts
system.mem_ctrls1.perBankWrBursts::3            30507                       # Per bank write bursts
system.mem_ctrls1.perBankWrBursts::4            33820                       # Per bank write bursts
system.mem_ctrls1.perBankWrBursts::5            33065                       # Per bank write bursts
system.mem_ctrls1.perBankWrBursts::6            32851                       # Per bank write bursts
system.mem_ctrls1.perBankWrBursts::7            31498                       # Per bank write bursts
system.mem_ctrls1.perBankWrBursts::8            31787                       # Per bank write bursts
system.mem_ctrls1.perBankWrBursts::9            31854                       # Per bank write bursts
system.mem_ctrls1.perBankWrBursts::10           31342                       # Per bank write bursts
system.mem_ctrls1.perBankWrBursts::11           31324                       # Per bank write bursts
system.mem_ctrls1.perBankWrBursts::12           31669                       # Per bank write bursts
system.mem_ctrls1.perBankWrBursts::13           30971                       # Per bank write bursts
system.mem_ctrls1.perBankWrBursts::14           30998                       # Per bank write bursts
system.mem_ctrls1.perBankWrBursts::15           30658                       # Per bank write bursts
system.mem_ctrls1.numRdRetry                        0                       # Number of times read queue was full causing retry
system.mem_ctrls1.numWrRetry                        0                       # Number of times write queue was full causing retry
system.mem_ctrls1.totGap                 809548975500                       # Total gap between requests
system.mem_ctrls1.readPktSize::0                    0                       # Read request sizes (log2)
system.mem_ctrls1.readPktSize::1                    0                       # Read request sizes (log2)
system.mem_ctrls1.readPktSize::2                    0                       # Read request sizes (log2)
system.mem_ctrls1.readPktSize::3                    0                       # Read request sizes (log2)
system.mem_ctrls1.readPktSize::4                    0                       # Read request sizes (log2)
system.mem_ctrls1.readPktSize::5                    0                       # Read request sizes (log2)
system.mem_ctrls1.readPktSize::6               950252                       # Read request sizes (log2)
system.mem_ctrls1.writePktSize::0                   0                       # Write request sizes (log2)
system.mem_ctrls1.writePktSize::1                   0                       # Write request sizes (log2)
system.mem_ctrls1.writePktSize::2                   0                       # Write request sizes (log2)
system.mem_ctrls1.writePktSize::3                   0                       # Write request sizes (log2)
system.mem_ctrls1.writePktSize::4                   0                       # Write request sizes (log2)
system.mem_ctrls1.writePktSize::5                   0                       # Write request sizes (log2)
system.mem_ctrls1.writePktSize::6              509118                       # Write request sizes (log2)
system.mem_ctrls1.rdQLenPdf::0                 947255                       # What read queue length does an incoming req see
system.mem_ctrls1.rdQLenPdf::1                   2264                       # What read queue length does an incoming req see
system.mem_ctrls1.rdQLenPdf::2                      1                       # What read queue length does an incoming req see
system.mem_ctrls1.rdQLenPdf::3                      0                       # What read queue length does an incoming req see
system.mem_ctrls1.rdQLenPdf::4                      0                       # What read queue length does an incoming req see
system.mem_ctrls1.rdQLenPdf::5                      0                       # What read queue length does an incoming req see
system.mem_ctrls1.rdQLenPdf::6                      0                       # What read queue length does an incoming req see
system.mem_ctrls1.rdQLenPdf::7                      0                       # What read queue length does an incoming req see
system.mem_ctrls1.rdQLenPdf::8                      0                       # What read queue length does an incoming req see
system.mem_ctrls1.rdQLenPdf::9                      0                       # What read queue length does an incoming req see
system.mem_ctrls1.rdQLenPdf::10                     0                       # What read queue length does an incoming req see
system.mem_ctrls1.rdQLenPdf::11                     0                       # What read queue length does an incoming req see
system.mem_ctrls1.rdQLenPdf::12                     0                       # What read queue length does an incoming req see
system.mem_ctrls1.rdQLenPdf::13                     0                       # What read queue length does an incoming req see
system.mem_ctrls1.rdQLenPdf::14                     0                       # What read queue length does an incoming req see
system.mem_ctrls1.rdQLenPdf::15                     0                       # What read queue length does an incoming req see
system.mem_ctrls1.rdQLenPdf::16                     0                       # What read queue length does an incoming req see
system.mem_ctrls1.rdQLenPdf::17                     0                       # What read queue length does an incoming req see
system.mem_ctrls1.rdQLenPdf::18                     0                       # What read queue length does an incoming req see
system.mem_ctrls1.rdQLenPdf::19                     0                       # What read queue length does an incoming req see
system.mem_ctrls1.rdQLenPdf::20                     0                       # What read queue length does an incoming req see
system.mem_ctrls1.rdQLenPdf::21                     0                       # What read queue length does an incoming req see
system.mem_ctrls1.rdQLenPdf::22                     0                       # What read queue length does an incoming req see
system.mem_ctrls1.rdQLenPdf::23                     0                       # What read queue length does an incoming req see
system.mem_ctrls1.rdQLenPdf::24                     0                       # What read queue length does an incoming req see
system.mem_ctrls1.rdQLenPdf::25                     0                       # What read queue length does an incoming req see
system.mem_ctrls1.rdQLenPdf::26                     0                       # What read queue length does an incoming req see
system.mem_ctrls1.rdQLenPdf::27                     0                       # What read queue length does an incoming req see
system.mem_ctrls1.rdQLenPdf::28                     0                       # What read queue length does an incoming req see
system.mem_ctrls1.rdQLenPdf::29                     0                       # What read queue length does an incoming req see
system.mem_ctrls1.rdQLenPdf::30                     0                       # What read queue length does an incoming req see
system.mem_ctrls1.rdQLenPdf::31                     0                       # What read queue length does an incoming req see
system.mem_ctrls1.wrQLenPdf::0                      0                       # What write queue length does an incoming req see
system.mem_ctrls1.wrQLenPdf::1                      0                       # What write queue length does an incoming req see
system.mem_ctrls1.wrQLenPdf::2                      0                       # What write queue length does an incoming req see
system.mem_ctrls1.wrQLenPdf::3                      0                       # What write queue length does an incoming req see
system.mem_ctrls1.wrQLenPdf::4                      0                       # What write queue length does an incoming req see
system.mem_ctrls1.wrQLenPdf::5                      0                       # What write queue length does an incoming req see
system.mem_ctrls1.wrQLenPdf::6                      0                       # What write queue length does an incoming req see
system.mem_ctrls1.wrQLenPdf::7                      0                       # What write queue length does an incoming req see
system.mem_ctrls1.wrQLenPdf::8                      0                       # What write queue length does an incoming req see
system.mem_ctrls1.wrQLenPdf::9                      0                       # What write queue length does an incoming req see
system.mem_ctrls1.wrQLenPdf::10                     0                       # What write queue length does an incoming req see
system.mem_ctrls1.wrQLenPdf::11                     0                       # What write queue length does an incoming req see
system.mem_ctrls1.wrQLenPdf::12                     0                       # What write queue length does an incoming req see
system.mem_ctrls1.wrQLenPdf::13                     0                       # What write queue length does an incoming req see
system.mem_ctrls1.wrQLenPdf::14                     0                       # What write queue length does an incoming req see
system.mem_ctrls1.wrQLenPdf::15                   879                       # What write queue length does an incoming req see
system.mem_ctrls1.wrQLenPdf::16                   924                       # What write queue length does an incoming req see
system.mem_ctrls1.wrQLenPdf::17                 31669                       # What write queue length does an incoming req see
system.mem_ctrls1.wrQLenPdf::18                 31716                       # What write queue length does an incoming req see
system.mem_ctrls1.wrQLenPdf::19                 31708                       # What write queue length does an incoming req see
system.mem_ctrls1.wrQLenPdf::20                 31711                       # What write queue length does an incoming req see
system.mem_ctrls1.wrQLenPdf::21                 31716                       # What write queue length does an incoming req see
system.mem_ctrls1.wrQLenPdf::22                 31708                       # What write queue length does an incoming req see
system.mem_ctrls1.wrQLenPdf::23                 31710                       # What write queue length does an incoming req see
system.mem_ctrls1.wrQLenPdf::24                 31710                       # What write queue length does an incoming req see
system.mem_ctrls1.wrQLenPdf::25                 31712                       # What write queue length does an incoming req see
system.mem_ctrls1.wrQLenPdf::26                 31709                       # What write queue length does an incoming req see
system.mem_ctrls1.wrQLenPdf::27                 31711                       # What write queue length does an incoming req see
system.mem_ctrls1.wrQLenPdf::28                 31710                       # What write queue length does an incoming req see
system.mem_ctrls1.wrQLenPdf::29                 31707                       # What write queue length does an incoming req see
system.mem_ctrls1.wrQLenPdf::30                 31707                       # What write queue length does an incoming req see
system.mem_ctrls1.wrQLenPdf::31                 31706                       # What write queue length does an incoming req see
system.mem_ctrls1.wrQLenPdf::32                 31705                       # What write queue length does an incoming req see
system.mem_ctrls1.wrQLenPdf::33                     0                       # What write queue length does an incoming req see
system.mem_ctrls1.wrQLenPdf::34                     0                       # What write queue length does an incoming req see
system.mem_ctrls1.wrQLenPdf::35                     0                       # What write queue length does an incoming req see
system.mem_ctrls1.wrQLenPdf::36                     0                       # What write queue length does an incoming req see
system.mem_ctrls1.wrQLenPdf::37                     0                       # What write queue length does an incoming req see
system.mem_ctrls1.wrQLenPdf::38                     0                       # What write queue length does an incoming req see
system.mem_ctrls1.wrQLenPdf::39                     0                       # What write queue length does an incoming req see
system.mem_ctrls1.wrQLenPdf::40                     0                       # What write queue length does an incoming req see
system.mem_ctrls1.wrQLenPdf::41                     0                       # What write queue length does an incoming req see
system.mem_ctrls1.wrQLenPdf::42                     0                       # What write queue length does an incoming req see
system.mem_ctrls1.wrQLenPdf::43                     0                       # What write queue length does an incoming req see
system.mem_ctrls1.wrQLenPdf::44                     0                       # What write queue length does an incoming req see
system.mem_ctrls1.wrQLenPdf::45                     0                       # What write queue length does an incoming req see
system.mem_ctrls1.wrQLenPdf::46                     0                       # What write queue length does an incoming req see
system.mem_ctrls1.wrQLenPdf::47                     0                       # What write queue length does an incoming req see
system.mem_ctrls1.wrQLenPdf::48                     0                       # What write queue length does an incoming req see
system.mem_ctrls1.wrQLenPdf::49                     0                       # What write queue length does an incoming req see
system.mem_ctrls1.wrQLenPdf::50                     0                       # What write queue length does an incoming req see
system.mem_ctrls1.wrQLenPdf::51                     0                       # What write queue length does an incoming req see
system.mem_ctrls1.wrQLenPdf::52                     0                       # What write queue length does an incoming req see
system.mem_ctrls1.wrQLenPdf::53                     0                       # What write queue length does an incoming req see
system.mem_ctrls1.wrQLenPdf::54                     0                       # What write queue length does an incoming req see
system.mem_ctrls1.wrQLenPdf::55                     0                       # What write queue length does an incoming req see
system.mem_ctrls1.wrQLenPdf::56                     0                       # What write queue length does an incoming req see
system.mem_ctrls1.wrQLenPdf::57                     0                       # What write queue length does an incoming req see
system.mem_ctrls1.wrQLenPdf::58                     0                       # What write queue length does an incoming req see
system.mem_ctrls1.wrQLenPdf::59                     0                       # What write queue length does an incoming req see
system.mem_ctrls1.wrQLenPdf::60                     0                       # What write queue length does an incoming req see
system.mem_ctrls1.wrQLenPdf::61                     0                       # What write queue length does an incoming req see
system.mem_ctrls1.wrQLenPdf::62                     0                       # What write queue length does an incoming req see
system.mem_ctrls1.wrQLenPdf::63                     0                       # What write queue length does an incoming req see
system.mem_ctrls1.bytesPerActivate::samples      1359445                       # Bytes accessed per row activation
system.mem_ctrls1.bytesPerActivate::mean    68.669388                       # Bytes accessed per row activation
system.mem_ctrls1.bytesPerActivate::gmean    66.823508                       # Bytes accessed per row activation
system.mem_ctrls1.bytesPerActivate::stdev    29.734873                       # Bytes accessed per row activation
system.mem_ctrls1.bytesPerActivate::0-127      1282714     94.36%     94.36% # Bytes accessed per row activation
system.mem_ctrls1.bytesPerActivate::128-255        74113      5.45%     99.81% # Bytes accessed per row activation
system.mem_ctrls1.bytesPerActivate::256-383         1155      0.08%     99.89% # Bytes accessed per row activation
system.mem_ctrls1.bytesPerActivate::384-511          247      0.02%     99.91% # Bytes accessed per row activation
system.mem_ctrls1.bytesPerActivate::512-639          192      0.01%     99.92% # Bytes accessed per row activation
system.mem_ctrls1.bytesPerActivate::640-767          263      0.02%     99.94% # Bytes accessed per row activation
system.mem_ctrls1.bytesPerActivate::768-895          105      0.01%     99.95% # Bytes accessed per row activation
system.mem_ctrls1.bytesPerActivate::896-1023          104      0.01%     99.96% # Bytes accessed per row activation
system.mem_ctrls1.bytesPerActivate::1024-1151          552      0.04%    100.00% # Bytes accessed per row activation
system.mem_ctrls1.bytesPerActivate::total      1359445                       # Bytes accessed per row activation
system.mem_ctrls1.rdPerTurnAround::samples        31705                       # Reads before turning the bus around for writes
system.mem_ctrls1.rdPerTurnAround::mean     29.948841                       # Reads before turning the bus around for writes
system.mem_ctrls1.rdPerTurnAround::stdev     8.614635                       # Reads before turning the bus around for writes
system.mem_ctrls1.rdPerTurnAround::0-15            33      0.10%      0.10% # Reads before turning the bus around for writes
system.mem_ctrls1.rdPerTurnAround::16-31        21444     67.64%     67.74% # Reads before turning the bus around for writes
system.mem_ctrls1.rdPerTurnAround::32-47        10009     31.57%     99.31% # Reads before turning the bus around for writes
system.mem_ctrls1.rdPerTurnAround::48-63           80      0.25%     99.56% # Reads before turning the bus around for writes
system.mem_ctrls1.rdPerTurnAround::64-79            9      0.03%     99.59% # Reads before turning the bus around for writes
system.mem_ctrls1.rdPerTurnAround::80-95           15      0.05%     99.64% # Reads before turning the bus around for writes
system.mem_ctrls1.rdPerTurnAround::96-111           26      0.08%     99.72% # Reads before turning the bus around for writes
system.mem_ctrls1.rdPerTurnAround::112-127           20      0.06%     99.78% # Reads before turning the bus around for writes
system.mem_ctrls1.rdPerTurnAround::128-143           23      0.07%     99.85% # Reads before turning the bus around for writes
system.mem_ctrls1.rdPerTurnAround::144-159           25      0.08%     99.93% # Reads before turning the bus around for writes
system.mem_ctrls1.rdPerTurnAround::160-175            9      0.03%     99.96% # Reads before turning the bus around for writes
system.mem_ctrls1.rdPerTurnAround::176-191            7      0.02%     99.98% # Reads before turning the bus around for writes
system.mem_ctrls1.rdPerTurnAround::192-207            2      0.01%     99.99% # Reads before turning the bus around for writes
system.mem_ctrls1.rdPerTurnAround::208-223            2      0.01%    100.00% # Reads before turning the bus around for writes
system.mem_ctrls1.rdPerTurnAround::256-271            1      0.00%    100.00% # Reads before turning the bus around for writes
system.mem_ctrls1.rdPerTurnAround::total        31705                       # Reads before turning the bus around for writes
system.mem_ctrls1.wrPerTurnAround::samples        31705                       # Writes before turning the bus around for reads
system.mem_ctrls1.wrPerTurnAround::mean     16.057688                       # Writes before turning the bus around for reads
system.mem_ctrls1.wrPerTurnAround::gmean    16.054444                       # Writes before turning the bus around for reads
system.mem_ctrls1.wrPerTurnAround::stdev     0.335165                       # Writes before turning the bus around for reads
system.mem_ctrls1.wrPerTurnAround::16           30783     97.09%     97.09% # Writes before turning the bus around for reads
system.mem_ctrls1.wrPerTurnAround::17              27      0.09%     97.18% # Writes before turning the bus around for reads
system.mem_ctrls1.wrPerTurnAround::18             883      2.79%     99.96% # Writes before turning the bus around for reads
system.mem_ctrls1.wrPerTurnAround::19              12      0.04%    100.00% # Writes before turning the bus around for reads
system.mem_ctrls1.wrPerTurnAround::total        31705                       # Writes before turning the bus around for reads
system.mem_ctrls1.totQLat                 22444622723                       # Total ticks spent queuing
system.mem_ctrls1.totMemAccLat            40248122723                       # Total ticks spent from burst creation until serviced by the DRAM
system.mem_ctrls1.totBusLat                4747600000                       # Total ticks spent in databus transfers
system.mem_ctrls1.avgQLat                    23637.86                       # Average queueing delay per DRAM burst
system.mem_ctrls1.avgBusLat                   5000.00                       # Average bus latency per DRAM burst
system.mem_ctrls1.avgMemAccLat               42387.86                       # Average memory access latency per DRAM burst
system.mem_ctrls1.avgRdBW                       75.07                       # Average DRAM read bandwidth in MiByte/s
system.mem_ctrls1.avgWrBW                       40.25                       # Average achieved write bandwidth in MiByte/s
system.mem_ctrls1.avgRdBWSys                    75.12                       # Average system read bandwidth in MiByte/s
system.mem_ctrls1.avgWrBWSys                    40.25                       # Average system write bandwidth in MiByte/s
system.mem_ctrls1.peakBW                     12800.00                       # Theoretical peak bandwidth in MiByte/s
system.mem_ctrls1.busUtil                        0.90                       # Data bus utilization in percentage
system.mem_ctrls1.busUtilRead                    0.59                       # Data bus utilization in percentage for reads
system.mem_ctrls1.busUtilWrite                   0.31                       # Data bus utilization in percentage for writes
system.mem_ctrls1.avgRdQLen                      1.00                       # Average read queue length when enqueuing
system.mem_ctrls1.avgWrQLen                     25.49                       # Average write queue length when enqueuing
system.mem_ctrls1.readRowHits                   39771                       # Number of row buffer hits during reads
system.mem_ctrls1.writeRowHits                  59413                       # Number of row buffer hits during writes
system.mem_ctrls1.readRowHitRate                 4.19                       # Row buffer hit rate for reads
system.mem_ctrls1.writeRowHitRate               11.67                       # Row buffer hit rate for writes
system.mem_ctrls1.avgGap                    554724.97                       # Average gap between requests
system.mem_ctrls1.pageHitRate                    6.80                       # Row buffer hit rate, read and write combined
system.mem_ctrls1_0.actEnergy              5203933560                       # Energy for activate commands per rank (pJ)
system.mem_ctrls1_0.preEnergy              2839447875                       # Energy for precharge commands per rank (pJ)
system.mem_ctrls1_0.readEnergy             3767392200                       # Energy for read commands per rank (pJ)
system.mem_ctrls1_0.writeEnergy            1675909440                       # Energy for write commands per rank (pJ)
system.mem_ctrls1_0.refreshEnergy         53373880560                       # Energy for refresh commands per rank (pJ)
system.mem_ctrls1_0.actBackEnergy        442379330730                       # Energy for active background per rank (pJ)
system.mem_ctrls1_0.preBackEnergy        102252945750                       # Energy for precharge background per rank (pJ)
system.mem_ctrls1_0.totalEnergy          611492840115                       # Total energy per rank (pJ)
system.mem_ctrls1_0.averagePower           748.300979                       # Core power per rank (mW)
system.mem_ctrls1_0.memoryStateTime::IDLE 162904724750                       # Time in different power states
system.mem_ctrls1_0.memoryStateTime::REF  27032460000                       # Time in different power states
system.mem_ctrls1_0.memoryStateTime::PRE_PDN            0                       # Time in different power states
system.mem_ctrls1_0.memoryStateTime::ACT 619611790750                       # Time in different power states
system.mem_ctrls1_0.memoryStateTime::ACT_PDN            0                       # Time in different power states
system.mem_ctrls1_1.actEnergy              5092416000                       # Energy for activate commands per rank (pJ)
system.mem_ctrls1_1.preEnergy              2778600000                       # Energy for precharge commands per rank (pJ)
system.mem_ctrls1_1.readEnergy             3693206400                       # Energy for read commands per rank (pJ)
system.mem_ctrls1_1.writeEnergy            1624672080                       # Energy for write commands per rank (pJ)
system.mem_ctrls1_1.refreshEnergy         53373880560                       # Energy for refresh commands per rank (pJ)
system.mem_ctrls1_1.actBackEnergy        442400889555                       # Energy for active background per rank (pJ)
system.mem_ctrls1_1.preBackEnergy        102234034500                       # Energy for precharge background per rank (pJ)
system.mem_ctrls1_1.totalEnergy          611197699095                       # Total energy per rank (pJ)
system.mem_ctrls1_1.averagePower           747.939806                       # Core power per rank (mW)
system.mem_ctrls1_1.memoryStateTime::IDLE 163694613752                       # Time in different power states
system.mem_ctrls1_1.memoryStateTime::REF  27032460000                       # Time in different power states
system.mem_ctrls1_1.memoryStateTime::PRE_PDN            0                       # Time in different power states
system.mem_ctrls1_1.memoryStateTime::ACT 618817124998                       # Time in different power states
system.mem_ctrls1_1.memoryStateTime::ACT_PDN            0                       # Time in different power states
system.mem_ctrls2.bytes_read::ruby.dir_cntrl2     60794944                       # Number of bytes read from this memory
system.mem_ctrls2.bytes_read::total          60794944                       # Number of bytes read from this memory
system.mem_ctrls2.bytes_written::ruby.dir_cntrl2     32540800                       # Number of bytes written to this memory
system.mem_ctrls2.bytes_written::total       32540800                       # Number of bytes written to this memory
system.mem_ctrls2.num_reads::ruby.dir_cntrl2       949921                       # Number of read requests responded to by this memory
system.mem_ctrls2.num_reads::total             949921                       # Number of read requests responded to by this memory
system.mem_ctrls2.num_writes::ruby.dir_cntrl2       508450                       # Number of write requests responded to by this memory
system.mem_ctrls2.num_writes::total            508450                       # Number of write requests responded to by this memory
system.mem_ctrls2.bw_read::ruby.dir_cntrl2     75097310                       # Total read bandwidth from this memory (bytes/s)
system.mem_ctrls2.bw_read::total             75097310                       # Total read bandwidth from this memory (bytes/s)
system.mem_ctrls2.bw_write::ruby.dir_cntrl2     40196213                       # Write bandwidth from this memory (bytes/s)
system.mem_ctrls2.bw_write::total            40196213                       # Write bandwidth from this memory (bytes/s)
system.mem_ctrls2.bw_total::ruby.dir_cntrl2    115293523                       # Total bandwidth to/from this memory (bytes/s)
system.mem_ctrls2.bw_total::total           115293523                       # Total bandwidth to/from this memory (bytes/s)
system.mem_ctrls2.readReqs                     949921                       # Number of read requests accepted
system.mem_ctrls2.writeReqs                    508450                       # Number of write requests accepted
system.mem_ctrls2.readBursts                   949921                       # Number of DRAM read bursts, including those serviced by the write queue
system.mem_ctrls2.writeBursts                  508450                       # Number of DRAM write bursts, including those merged in the write queue
system.mem_ctrls2.bytesReadDRAM              60748736                       # Total number of bytes read from DRAM
system.mem_ctrls2.bytesReadWrQ                  46208                       # Total number of bytes read from write queue
system.mem_ctrls2.bytesWritten               32540928                       # Total number of bytes written to DRAM
system.mem_ctrls2.bytesReadSys               60794944                       # Total read bytes from the system interface side
system.mem_ctrls2.bytesWrittenSys            32540800                       # Total written bytes from the system interface side
system.mem_ctrls2.servicedByWrQ                   722                       # Number of DRAM read bursts serviced by the write queue
system.mem_ctrls2.mergedWrBursts                    0                       # Number of DRAM write bursts merged with an existing one
system.mem_ctrls2.neitherReadNorWriteReqs            0                       # Number of requests that are neither read nor write
system.mem_ctrls2.perBankRdBursts::0            61821                       # Per bank write bursts
system.mem_ctrls2.perBankRdBursts::1            64771                       # Per bank write bursts
system.mem_ctrls2.perBankRdBursts::2            60025                       # Per bank write bursts
system.mem_ctrls2.perBankRdBursts::3            60093                       # Per bank write bursts
system.mem_ctrls2.perBankRdBursts::4            63836                       # Per bank write bursts
system.mem_ctrls2.perBankRdBursts::5            58556                       # Per bank write bursts
system.mem_ctrls2.perBankRdBursts::6            57848                       # Per bank write bursts
system.mem_ctrls2.perBankRdBursts::7            53749                       # Per bank write bursts
system.mem_ctrls2.perBankRdBursts::8            56529                       # Per bank write bursts
system.mem_ctrls2.perBankRdBursts::9            57409                       # Per bank write bursts
system.mem_ctrls2.perBankRdBursts::10           57073                       # Per bank write bursts
system.mem_ctrls2.perBankRdBursts::11           55339                       # Per bank write bursts
system.mem_ctrls2.perBankRdBursts::12           61702                       # Per bank write bursts
system.mem_ctrls2.perBankRdBursts::13           61309                       # Per bank write bursts
system.mem_ctrls2.perBankRdBursts::14           59257                       # Per bank write bursts
system.mem_ctrls2.perBankRdBursts::15           59882                       # Per bank write bursts
system.mem_ctrls2.perBankWrBursts::0            32566                       # Per bank write bursts
system.mem_ctrls2.perBankWrBursts::1            32479                       # Per bank write bursts
system.mem_ctrls2.perBankWrBursts::2            30786                       # Per bank write bursts
system.mem_ctrls2.perBankWrBursts::3            30786                       # Per bank write bursts
system.mem_ctrls2.perBankWrBursts::4            33941                       # Per bank write bursts
system.mem_ctrls2.perBankWrBursts::5            32958                       # Per bank write bursts
system.mem_ctrls2.perBankWrBursts::6            33242                       # Per bank write bursts
system.mem_ctrls2.perBankWrBursts::7            31224                       # Per bank write bursts
system.mem_ctrls2.perBankWrBursts::8            31681                       # Per bank write bursts
system.mem_ctrls2.perBankWrBursts::9            31980                       # Per bank write bursts
system.mem_ctrls2.perBankWrBursts::10           31473                       # Per bank write bursts
system.mem_ctrls2.perBankWrBursts::11           30952                       # Per bank write bursts
system.mem_ctrls2.perBankWrBursts::12           31875                       # Per bank write bursts
system.mem_ctrls2.perBankWrBursts::13           30965                       # Per bank write bursts
system.mem_ctrls2.perBankWrBursts::14           30856                       # Per bank write bursts
system.mem_ctrls2.perBankWrBursts::15           30688                       # Per bank write bursts
system.mem_ctrls2.numRdRetry                        0                       # Number of times read queue was full causing retry
system.mem_ctrls2.numWrRetry                        0                       # Number of times write queue was full causing retry
system.mem_ctrls2.totGap                 809548666500                       # Total gap between requests
system.mem_ctrls2.readPktSize::0                    0                       # Read request sizes (log2)
system.mem_ctrls2.readPktSize::1                    0                       # Read request sizes (log2)
system.mem_ctrls2.readPktSize::2                    0                       # Read request sizes (log2)
system.mem_ctrls2.readPktSize::3                    0                       # Read request sizes (log2)
system.mem_ctrls2.readPktSize::4                    0                       # Read request sizes (log2)
system.mem_ctrls2.readPktSize::5                    0                       # Read request sizes (log2)
system.mem_ctrls2.readPktSize::6               949921                       # Read request sizes (log2)
system.mem_ctrls2.writePktSize::0                   0                       # Write request sizes (log2)
system.mem_ctrls2.writePktSize::1                   0                       # Write request sizes (log2)
system.mem_ctrls2.writePktSize::2                   0                       # Write request sizes (log2)
system.mem_ctrls2.writePktSize::3                   0                       # Write request sizes (log2)
system.mem_ctrls2.writePktSize::4                   0                       # Write request sizes (log2)
system.mem_ctrls2.writePktSize::5                   0                       # Write request sizes (log2)
system.mem_ctrls2.writePktSize::6              508450                       # Write request sizes (log2)
system.mem_ctrls2.rdQLenPdf::0                 946814                       # What read queue length does an incoming req see
system.mem_ctrls2.rdQLenPdf::1                   2383                       # What read queue length does an incoming req see
system.mem_ctrls2.rdQLenPdf::2                      2                       # What read queue length does an incoming req see
system.mem_ctrls2.rdQLenPdf::3                      0                       # What read queue length does an incoming req see
system.mem_ctrls2.rdQLenPdf::4                      0                       # What read queue length does an incoming req see
system.mem_ctrls2.rdQLenPdf::5                      0                       # What read queue length does an incoming req see
system.mem_ctrls2.rdQLenPdf::6                      0                       # What read queue length does an incoming req see
system.mem_ctrls2.rdQLenPdf::7                      0                       # What read queue length does an incoming req see
system.mem_ctrls2.rdQLenPdf::8                      0                       # What read queue length does an incoming req see
system.mem_ctrls2.rdQLenPdf::9                      0                       # What read queue length does an incoming req see
system.mem_ctrls2.rdQLenPdf::10                     0                       # What read queue length does an incoming req see
system.mem_ctrls2.rdQLenPdf::11                     0                       # What read queue length does an incoming req see
system.mem_ctrls2.rdQLenPdf::12                     0                       # What read queue length does an incoming req see
system.mem_ctrls2.rdQLenPdf::13                     0                       # What read queue length does an incoming req see
system.mem_ctrls2.rdQLenPdf::14                     0                       # What read queue length does an incoming req see
system.mem_ctrls2.rdQLenPdf::15                     0                       # What read queue length does an incoming req see
system.mem_ctrls2.rdQLenPdf::16                     0                       # What read queue length does an incoming req see
system.mem_ctrls2.rdQLenPdf::17                     0                       # What read queue length does an incoming req see
system.mem_ctrls2.rdQLenPdf::18                     0                       # What read queue length does an incoming req see
system.mem_ctrls2.rdQLenPdf::19                     0                       # What read queue length does an incoming req see
system.mem_ctrls2.rdQLenPdf::20                     0                       # What read queue length does an incoming req see
system.mem_ctrls2.rdQLenPdf::21                     0                       # What read queue length does an incoming req see
system.mem_ctrls2.rdQLenPdf::22                     0                       # What read queue length does an incoming req see
system.mem_ctrls2.rdQLenPdf::23                     0                       # What read queue length does an incoming req see
system.mem_ctrls2.rdQLenPdf::24                     0                       # What read queue length does an incoming req see
system.mem_ctrls2.rdQLenPdf::25                     0                       # What read queue length does an incoming req see
system.mem_ctrls2.rdQLenPdf::26                     0                       # What read queue length does an incoming req see
system.mem_ctrls2.rdQLenPdf::27                     0                       # What read queue length does an incoming req see
system.mem_ctrls2.rdQLenPdf::28                     0                       # What read queue length does an incoming req see
system.mem_ctrls2.rdQLenPdf::29                     0                       # What read queue length does an incoming req see
system.mem_ctrls2.rdQLenPdf::30                     0                       # What read queue length does an incoming req see
system.mem_ctrls2.rdQLenPdf::31                     0                       # What read queue length does an incoming req see
system.mem_ctrls2.wrQLenPdf::0                      0                       # What write queue length does an incoming req see
system.mem_ctrls2.wrQLenPdf::1                      0                       # What write queue length does an incoming req see
system.mem_ctrls2.wrQLenPdf::2                      0                       # What write queue length does an incoming req see
system.mem_ctrls2.wrQLenPdf::3                      0                       # What write queue length does an incoming req see
system.mem_ctrls2.wrQLenPdf::4                      0                       # What write queue length does an incoming req see
system.mem_ctrls2.wrQLenPdf::5                      0                       # What write queue length does an incoming req see
system.mem_ctrls2.wrQLenPdf::6                      0                       # What write queue length does an incoming req see
system.mem_ctrls2.wrQLenPdf::7                      0                       # What write queue length does an incoming req see
system.mem_ctrls2.wrQLenPdf::8                      0                       # What write queue length does an incoming req see
system.mem_ctrls2.wrQLenPdf::9                      0                       # What write queue length does an incoming req see
system.mem_ctrls2.wrQLenPdf::10                     0                       # What write queue length does an incoming req see
[...]
system.ruby.DMA_Controller.ReadRequest::total        57139                      
system.ruby.DMA_Controller.WriteRequest  |        2496    100.00%    100.00% |           0      0.00%    100.00%
system.ruby.DMA_Controller.WriteRequest::total         2496                      
system.ruby.DMA_Controller.Data          |       57139    100.00%    100.00% |           0      0.00%    100.00%
system.ruby.DMA_Controller.Data::total          57139                      
system.ruby.DMA_Controller.Ack           |        2496    100.00%    100.00% |           0      0.00%    100.00%
system.ruby.DMA_Controller.Ack::total            2496                      
system.ruby.DMA_Controller.READY.ReadRequest |       57139    100.00%    100.00% |           0      0.00%    100.00%
system.ruby.DMA_Controller.READY.ReadRequest::total        57139                      
system.ruby.DMA_Controller.READY.WriteRequest |        2496    100.00%    100.00% |           0      0.00%    100.00%
system.ruby.DMA_Controller.READY.WriteRequest::total         2496                      
system.ruby.DMA_Controller.BUSY_RD.Data  |       57139    100.00%    100.00% |           0      0.00%    100.00%
system.ruby.DMA_Controller.BUSY_RD.Data::total        57139                      
system.ruby.DMA_Controller.BUSY_WR.Ack   |        2496    100.00%    100.00% |           0      0.00%    100.00%
system.ruby.DMA_Controller.BUSY_WR.Ack::total         2496                      
system.ruby.L1Cache_Controller.Load      |      579493      0.45%      0.45% |    37800745     29.67%     30.13% |    88183440     69.22%     99.35% |      829510      0.65%    100.00%
system.ruby.L1Cache_Controller.Load::total    127393188                      
system.ruby.L1Cache_Controller.Ifetch    |     2861462      0.56%      0.56% |   139643890     27.27%     27.83% |   365030525     71.28%     99.10% |     4603997      0.90%    100.00%
system.ruby.L1Cache_Controller.Ifetch::total    512139874                      
system.ruby.L1Cache_Controller.Store     |      430344      1.02%      1.02% |    16462343     39.06%     40.08% |    24595422     58.36%     98.44% |      657377      1.56%    100.00%
system.ruby.L1Cache_Controller.Store::total     42145486                      
system.ruby.L1Cache_Controller.Inv       |       61723     26.82%     26.82% |       54340     23.61%     50.42% |       52642     22.87%     73.29% |       61468     26.71%    100.00%
system.ruby.L1Cache_Controller.Inv::total       230173                      
system.ruby.L1Cache_Controller.L1_Replacement |       48575      0.37%      0.37% |     5742780     43.49%     43.86% |     7323928     55.47%     99.33% |       88859      0.67%    100.00%
system.ruby.L1Cache_Controller.L1_Replacement::total     13204142                      
system.ruby.L1Cache_Controller.Fwd_GETX  |         819     20.40%     20.40% |        1086     27.05%     47.45% |        1162     28.94%     76.39% |         948     23.61%    100.00%
system.ruby.L1Cache_Controller.Fwd_GETX::total         4015                      
system.ruby.L1Cache_Controller.Fwd_GETS  |        5852     31.41%     31.41% |        4641     24.91%     56.32% |        4655     24.99%     81.31% |        3483     18.69%    100.00%
system.ruby.L1Cache_Controller.Fwd_GETS::total        18631                      
system.ruby.L1Cache_Controller.Data      |         166     17.47%     17.47% |         233     24.53%     42.00% |         328     34.53%     76.53% |         223     23.47%    100.00%
system.ruby.L1Cache_Controller.Data::total          950                      
system.ruby.L1Cache_Controller.Data_Exclusive |       19242      0.21%      0.21% |     4326898     46.54%     46.75% |     4914846     52.86%     99.61% |       36369      0.39%    100.00%
system.ruby.L1Cache_Controller.Data_Exclusive::total      9297355                      
system.ruby.L1Cache_Controller.DataS_fromL1 |        5088     27.31%     27.31% |        3510     18.84%     46.15% |        3603     19.34%     65.49% |        6430     34.51%    100.00%
system.ruby.L1Cache_Controller.DataS_fromL1::total        18631                      
system.ruby.L1Cache_Controller.Data_all_Acks |       74071      1.83%      1.83% |     1446230     35.66%     37.48% |     2444738     60.28%     97.76% |       90784      2.24%    100.00%
system.ruby.L1Cache_Controller.Data_all_Acks::total      4055823                      
system.ruby.L1Cache_Controller.Ack       |        6463     39.21%     39.21% |        3765     22.84%     62.05% |        3153     19.13%     81.18% |        3103     18.82%    100.00%
system.ruby.L1Cache_Controller.Ack::total        16484                      
system.ruby.L1Cache_Controller.Ack_all   |        3292     28.67%     28.67% |        2975     25.91%     54.57% |        2588     22.54%     77.11% |        2629     22.89%    100.00%
system.ruby.L1Cache_Controller.Ack_all::total        11484                      
system.ruby.L1Cache_Controller.WB_Ack    |       12821      0.10%      0.10% |     5660780     43.73%     43.83% |     7229792     55.86%     99.69% |       40207      0.31%    100.00%
system.ruby.L1Cache_Controller.WB_Ack::total     12943600                      
system.ruby.L1Cache_Controller.NP.Load   |       15645      0.17%      0.17% |     4335397     46.36%     46.53% |     4964327     53.09%     99.61% |       36187      0.39%    100.00%
system.ruby.L1Cache_Controller.NP.Load::total      9351556                      
system.ruby.L1Cache_Controller.NP.Ifetch |       27636     16.47%     16.47% |       64895     38.68%     55.16% |       37599     22.41%     77.57% |       37629     22.43%    100.00%
system.ruby.L1Cache_Controller.NP.Ifetch::total       167759                      
system.ruby.L1Cache_Controller.NP.Store  |        5467      0.15%      0.15% |     1342488     36.43%     36.57% |     2322573     63.02%     99.59% |       15043      0.41%    100.00%
system.ruby.L1Cache_Controller.NP.Store::total      3685571                      
system.ruby.L1Cache_Controller.NP.Inv    |        5164     13.64%     13.64% |       14285     37.74%     51.38% |        8711     23.01%     74.39% |        9693     25.61%    100.00%
system.ruby.L1Cache_Controller.NP.Inv::total        37853                      
system.ruby.L1Cache_Controller.I.Load    |       11960     30.74%     30.74% |        8003     20.57%     51.32% |        5920     15.22%     66.53% |       13019     33.47%    100.00%
system.ruby.L1Cache_Controller.I.Load::total        38902                      
system.ruby.L1Cache_Controller.I.Ifetch  |       29600     27.90%     27.90% |       21711     20.46%     48.36% |       30197     28.46%     76.82% |       24593     23.18%    100.00%
system.ruby.L1Cache_Controller.I.Ifetch::total       106101                      
system.ruby.L1Cache_Controller.I.Store   |        8259     36.11%     36.11% |        4377     19.14%     55.25% |        2898     12.67%     67.93% |        7335     32.07%    100.00%
system.ruby.L1Cache_Controller.I.Store::total        22869                      
system.ruby.L1Cache_Controller.I.L1_Replacement |        7342     26.15%     26.15% |        6753     24.05%     50.20% |        5920     21.08%     71.28% |        8063     28.72%    100.00%
system.ruby.L1Cache_Controller.I.L1_Replacement::total        28078                      
system.ruby.L1Cache_Controller.S.Load    |       93485      3.76%      3.76% |      672883     27.04%     30.79% |     1607171     64.58%     95.37% |      115281      4.63%    100.00%
system.ruby.L1Cache_Controller.S.Load::total      2488820                      
system.ruby.L1Cache_Controller.S.Ifetch  |     2804226      0.55%      0.55% |   139557282     27.26%     27.81% |   364962729     71.30%     99.11% |     4541775      0.89%    100.00%
system.ruby.L1Cache_Controller.S.Ifetch::total    511866012                      
system.ruby.L1Cache_Controller.S.Store   |        3126     29.67%     29.67% |        2742     26.03%     55.70% |        2261     21.46%     77.16% |        2406     22.84%    100.00%
system.ruby.L1Cache_Controller.S.Store::total        10535                      
system.ruby.L1Cache_Controller.S.Inv     |       39898     28.00%     28.00% |       29732     20.86%     48.86% |       37218     26.11%     74.97% |       35669     25.03%    100.00%
system.ruby.L1Cache_Controller.S.Inv::total       142517                      
system.ruby.L1Cache_Controller.S.L1_Replacement |       28412     12.22%     12.22% |       75247     32.37%     44.59% |       88216     37.95%     82.54% |       40589     17.46%    100.00%
system.ruby.L1Cache_Controller.S.L1_Replacement::total       232464                      
system.ruby.L1Cache_Controller.E.Load    |       80722      0.09%      0.09% |    22235055     25.23%     25.32% |    65642787     74.49%     99.81% |      164189      0.19%    100.00%
system.ruby.L1Cache_Controller.E.Load::total     88122753                      
system.ruby.L1Cache_Controller.E.Store   |        5779      0.50%      0.50% |      991915     85.48%     85.98% |      145640     12.55%     98.53% |       17054      1.47%    100.00%
system.ruby.L1Cache_Controller.E.Store::total      1160388                      
system.ruby.L1Cache_Controller.E.Inv     |        5655     31.88%     31.88% |        3744     21.10%     52.98% |        2563     14.45%     67.43% |        5779     32.57%    100.00%
system.ruby.L1Cache_Controller.E.Inv::total        17741                      
system.ruby.L1Cache_Controller.E.L1_Replacement |        5047      0.06%      0.06% |     3328521     41.05%     41.12% |     4762805     58.74%     99.86% |       11388      0.14%    100.00%
system.ruby.L1Cache_Controller.E.L1_Replacement::total      8107761                      
system.ruby.L1Cache_Controller.E.Fwd_GETX |         225     13.70%     13.70% |         528     32.16%     45.86% |         618     37.64%     83.50% |         271     16.50%    100.00%
system.ruby.L1Cache_Controller.E.Fwd_GETX::total         1642                      
system.ruby.L1Cache_Controller.E.Fwd_GETS |        2442     25.94%     25.94% |        2504     26.60%     52.54% |        3109     33.03%     85.57% |        1358     14.43%    100.00%
system.ruby.L1Cache_Controller.E.Fwd_GETS::total         9413                      
system.ruby.L1Cache_Controller.M.Load    |      377681      1.38%      1.38% |    10549407     38.51%     39.89% |    15963235     58.28%     98.17% |      500834      1.83%    100.00%
system.ruby.L1Cache_Controller.M.Load::total     27391157                      
system.ruby.L1Cache_Controller.M.Store   |      407713      1.09%      1.09% |    14120821     37.89%     38.99% |    22122050     59.36%     98.35% |      615539      1.65%    100.00%
system.ruby.L1Cache_Controller.M.Store::total     37266123                      
system.ruby.L1Cache_Controller.M.Inv     |       11006     34.33%     34.33% |        6579     20.52%     54.85% |        4149     12.94%     67.79% |       10327     32.21%    100.00%
system.ruby.L1Cache_Controller.M.Inv::total        32061                      
system.ruby.L1Cache_Controller.M.L1_Replacement |        7774      0.16%      0.16% |     2332259     48.23%     48.39% |     2466987     51.01%     99.40% |       28819      0.60%    100.00%
system.ruby.L1Cache_Controller.M.L1_Replacement::total      4835839                      
system.ruby.L1Cache_Controller.M.Fwd_GETX |         594     25.03%     25.03% |         558     23.51%     48.55% |         544     22.92%     71.47% |         677     28.53%    100.00%
system.ruby.L1Cache_Controller.M.Fwd_GETX::total         2373                      
system.ruby.L1Cache_Controller.M.Fwd_GETS |        3410     36.99%     36.99% |        2137     23.18%     60.18% |        1546     16.77%     76.95% |        2125     23.05%    100.00%
system.ruby.L1Cache_Controller.M.Fwd_GETS::total         9218                      
system.ruby.L1Cache_Controller.IS.Data_Exclusive |       19242      0.21%      0.21% |     4326898     46.54%     46.75% |     4914846     52.86%     99.61% |       36369      0.39%    100.00%
system.ruby.L1Cache_Controller.IS.Data_Exclusive::total      9297355                      
system.ruby.L1Cache_Controller.IS.DataS_fromL1 |        5088     27.31%     27.31% |        3510     18.84%     46.15% |        3603     19.34%     65.49% |        6430     34.51%    100.00%
system.ruby.L1Cache_Controller.IS.DataS_fromL1::total        18631                      
system.ruby.L1Cache_Controller.IS.Data_all_Acks |       60511     17.37%     17.37% |       99598     28.59%     45.96% |      119594     34.33%     80.30% |       68629     19.70%    100.00%
system.ruby.L1Cache_Controller.IS.Data_all_Acks::total       348332                      
system.ruby.L1Cache_Controller.IM.Data   |         166     17.47%     17.47% |         233     24.53%     42.00% |         328     34.53%     76.53% |         223     23.47%    100.00%
system.ruby.L1Cache_Controller.IM.Data::total          950                      
system.ruby.L1Cache_Controller.IM.Data_all_Acks |       13560      0.37%      0.37% |     1346632     36.32%     36.69% |     2325144     62.71%     99.40% |       22155      0.60%    100.00%
system.ruby.L1Cache_Controller.IM.Data_all_Acks::total      3707491                      
system.ruby.L1Cache_Controller.SM.Inv    |           0      0.00%      0.00% |           0      0.00%      0.00% |           1    100.00%    100.00% |           0      0.00%    100.00%
system.ruby.L1Cache_Controller.SM.Inv::total            1                      
system.ruby.L1Cache_Controller.SM.Ack    |        6463     39.21%     39.21% |        3765     22.84%     62.05% |        3153     19.13%     81.18% |        3103     18.82%    100.00%
system.ruby.L1Cache_Controller.SM.Ack::total        16484                      
system.ruby.L1Cache_Controller.SM.Ack_all |        3292     28.67%     28.67% |        2975     25.91%     54.57% |        2588     22.54%     77.11% |        2629     22.89%    100.00%
system.ruby.L1Cache_Controller.SM.Ack_all::total        11484                      
system.ruby.L1Cache_Controller.M_I.Ifetch |           0      0.00%      0.00% |           2    100.00%    100.00% |           0      0.00%    100.00% |           0      0.00%    100.00%
system.ruby.L1Cache_Controller.M_I.Ifetch::total            2                      
system.ruby.L1Cache_Controller.M_I.WB_Ack |       12821      0.10%      0.10% |     5660780     43.73%     43.83% |     7229792     55.86%     99.69% |       40207      0.31%    100.00%
system.ruby.L1Cache_Controller.M_I.WB_Ack::total     12943600                      
system.ruby.L2Cache_Controller.L1_GET_INSTR       273860      0.00%      0.00%
system.ruby.L2Cache_Controller.L1_GETS        9390523      0.00%      0.00%
system.ruby.L2Cache_Controller.L1_GETX        3708443      0.00%      0.00%
system.ruby.L2Cache_Controller.L1_UPGRADE        10535      0.00%      0.00%
system.ruby.L2Cache_Controller.L1_PUTX       12943600      0.00%      0.00%
system.ruby.L2Cache_Controller.L2_Replacement      4058824      0.00%      0.00%
system.ruby.L2Cache_Controller.L2_Replacement_clean      3346683      0.00%      0.00%
system.ruby.L2Cache_Controller.Mem_Data       7413003      0.00%      0.00%
system.ruby.L2Cache_Controller.Mem_Ack        7406722      0.00%      0.00%
system.ruby.L2Cache_Controller.WB_Data          41279      0.00%      0.00%
system.ruby.L2Cache_Controller.WB_Data_clean         9413      0.00%      0.00%
system.ruby.L2Cache_Controller.Ack              85963      0.00%      0.00%
system.ruby.L2Cache_Controller.Ack_all          94715      0.00%      0.00%
system.ruby.L2Cache_Controller.Unblock          18631      0.00%      0.00%
system.ruby.L2Cache_Controller.Exclusive_Unblock     13016330      0.00%      0.00%
system.ruby.L2Cache_Controller.MEM_Inv           2430      0.00%      0.00%
system.ruby.L2Cache_Controller.NP.L1_GET_INSTR        72016      0.00%      0.00%
system.ruby.L2Cache_Controller.NP.L1_GETS      4201476      0.00%      0.00%
system.ruby.L2Cache_Controller.NP.L1_GETX      3139511      0.00%      0.00%
system.ruby.L2Cache_Controller.SS.L1_GET_INSTR       201826      0.00%      0.00%
system.ruby.L2Cache_Controller.SS.L1_GETS        74468      0.00%      0.00%
system.ruby.L2Cache_Controller.SS.L1_GETX          950      0.00%      0.00%
system.ruby.L2Cache_Controller.SS.L1_UPGRADE        10534      0.00%      0.00%
system.ruby.L2Cache_Controller.SS.L2_Replacement         1898      0.00%      0.00%
system.ruby.L2Cache_Controller.SS.L2_Replacement_clean        75076      0.00%      0.00%
system.ruby.L2Cache_Controller.M.L1_GET_INSTR           18      0.00%      0.00%
system.ruby.L2Cache_Controller.M.L1_GETS      5095881      0.00%      0.00%
system.ruby.L2Cache_Controller.M.L1_GETX       563965      0.00%      0.00%
system.ruby.L2Cache_Controller.M.L2_Replacement      4053984      0.00%      0.00%
system.ruby.L2Cache_Controller.M.L2_Replacement_clean      3224950      0.00%      0.00%
system.ruby.L2Cache_Controller.M.MEM_Inv         1012      0.00%      0.00%
system.ruby.L2Cache_Controller.MT.L1_GETS        18631      0.00%      0.00%
system.ruby.L2Cache_Controller.MT.L1_GETX         4015      0.00%      0.00%
system.ruby.L2Cache_Controller.MT.L1_PUTX     12943600      0.00%      0.00%
system.ruby.L2Cache_Controller.MT.L2_Replacement         2942      0.00%      0.00%
system.ruby.L2Cache_Controller.MT.L2_Replacement_clean        46657      0.00%      0.00%
system.ruby.L2Cache_Controller.MT.MEM_Inv          203      0.00%      0.00%
system.ruby.L2Cache_Controller.M_I.L1_GETS            1      0.00%      0.00%
system.ruby.L2Cache_Controller.M_I.Mem_Ack      7406722      0.00%      0.00%
system.ruby.L2Cache_Controller.M_I.MEM_Inv         1012      0.00%      0.00%
system.ruby.L2Cache_Controller.MT_I.WB_Data         2546      0.00%      0.00%
system.ruby.L2Cache_Controller.MT_I.Ack_all          599      0.00%      0.00%
system.ruby.L2Cache_Controller.MT_I.MEM_Inv          203      0.00%      0.00%
system.ruby.L2Cache_Controller.MCT_I.WB_Data        29515      0.00%      0.00%
system.ruby.L2Cache_Controller.MCT_I.Ack_all        17142      0.00%      0.00%
system.ruby.L2Cache_Controller.I_I.Ack          83815      0.00%      0.00%
system.ruby.L2Cache_Controller.I_I.Ack_all        75076      0.00%      0.00%
system.ruby.L2Cache_Controller.S_I.Ack           2148      0.00%      0.00%
system.ruby.L2Cache_Controller.S_I.Ack_all         1898      0.00%      0.00%
system.ruby.L2Cache_Controller.ISS.L1_GETS            2      0.00%      0.00%
system.ruby.L2Cache_Controller.ISS.Mem_Data      4201474      0.00%      0.00%
system.ruby.L2Cache_Controller.IS.Mem_Data        72018      0.00%      0.00%
system.ruby.L2Cache_Controller.IM.Mem_Data      3139511      0.00%      0.00%
system.ruby.L2Cache_Controller.SS_MB.L1_GETS           42      0.00%      0.00%
system.ruby.L2Cache_Controller.SS_MB.L1_UPGRADE            1      0.00%      0.00%
system.ruby.L2Cache_Controller.SS_MB.Exclusive_Unblock        11484      0.00%      0.00%
system.ruby.L2Cache_Controller.MT_MB.L1_GETS           19      0.00%      0.00%
system.ruby.L2Cache_Controller.MT_MB.L1_GETX            2      0.00%      0.00%
system.ruby.L2Cache_Controller.MT_MB.Exclusive_Unblock     13004846      0.00%      0.00%
system.ruby.L2Cache_Controller.MT_IIB.L1_GETS            3      0.00%      0.00%
system.ruby.L2Cache_Controller.MT_IIB.WB_Data         9185      0.00%      0.00%
system.ruby.L2Cache_Controller.MT_IIB.WB_Data_clean         9373      0.00%      0.00%
system.ruby.L2Cache_Controller.MT_IIB.Unblock           73      0.00%      0.00%
system.ruby.L2Cache_Controller.MT_IB.WB_Data           33      0.00%      0.00%
system.ruby.L2Cache_Controller.MT_IB.WB_Data_clean           40      0.00%      0.00%
system.ruby.L2Cache_Controller.MT_SB.Unblock        18558      0.00%      0.00%

---------- End Simulation Statistics   ----------
