
---------- Begin Simulation Statistics ----------
sim_seconds                                  0.462522                       # Number of seconds simulated
sim_ticks                                462522418500                       # Number of ticks simulated
final_tick                               52709525369001                       # Number of ticks from beginning of simulation (restored from checkpoints and never reset)
sim_freq                                 1000000000000                       # Frequency of simulated ticks
host_inst_rate                                 155136                       # Simulator instruction rate (inst/s)
host_op_rate                                   279983                       # Simulator op (including micro ops) rate (op/s)
host_tick_rate                              266931596                       # Simulator tick rate (ticks/s)
host_mem_usage                                1802288                       # Number of bytes of host memory used
host_seconds                                  1732.74                       # Real time elapsed on the host
sim_insts                                   268810090                       # Number of instructions simulated
sim_ops                                     485136696                       # Number of ops (including micro ops) simulated
system.voltage_domain.voltage                       1                       # Voltage in Volts
system.clk_domain.clock                          1000                       # Clock period in ticks
system.mem_ctrls.bytes_read::ruby.dir_cntrl0       442240                       # Number of bytes read from this memory
system.mem_ctrls.bytes_read::total             442240                       # Number of bytes read from this memory
system.mem_ctrls.bytes_written::ruby.dir_cntrl0       153024                       # Number of bytes written to this memory
system.mem_ctrls.bytes_written::total          153024                       # Number of bytes written to this memory
system.mem_ctrls.num_reads::ruby.dir_cntrl0         6910                       # Number of read requests responded to by this memory
system.mem_ctrls.num_reads::total                6910                       # Number of read requests responded to by this memory
system.mem_ctrls.num_writes::ruby.dir_cntrl0         2391                       # Number of write requests responded to by this memory
system.mem_ctrls.num_writes::total               2391                       # Number of write requests responded to by this memory
system.mem_ctrls.bw_read::ruby.dir_cntrl0       956148                       # Total read bandwidth from this memory (bytes/s)
system.mem_ctrls.bw_read::total                956148                       # Total read bandwidth from this memory (bytes/s)
system.mem_ctrls.bw_write::ruby.dir_cntrl0       330847                       # Write bandwidth from this memory (bytes/s)
system.mem_ctrls.bw_write::total               330847                       # Write bandwidth from this memory (bytes/s)
system.mem_ctrls.bw_total::ruby.dir_cntrl0      1286995                       # Total bandwidth to/from this memory (bytes/s)
system.mem_ctrls.bw_total::total              1286995                       # Total bandwidth to/from this memory (bytes/s)
system.mem_ctrls.readReqs                        6910                       # Number of read requests accepted
system.mem_ctrls.writeReqs                       2391                       # Number of write requests accepted
system.mem_ctrls.readBursts                      6910                       # Number of DRAM read bursts, including those serviced by the write queue
system.mem_ctrls.writeBursts                     2391                       # Number of DRAM write bursts, including those merged in the write queue
system.mem_ctrls.bytesReadDRAM                 439296                       # Total number of bytes read from DRAM
system.mem_ctrls.bytesReadWrQ                    2944                       # Total number of bytes read from write queue
system.mem_ctrls.bytesWritten                  151872                       # Total number of bytes written to DRAM
system.mem_ctrls.bytesReadSys                  442240                       # Total read bytes from the system interface side
system.mem_ctrls.bytesWrittenSys               153024                       # Total written bytes from the system interface side
system.mem_ctrls.servicedByWrQ                     46                       # Number of DRAM read bursts serviced by the write queue
system.mem_ctrls.mergedWrBursts                     0                       # Number of DRAM write bursts merged with an existing one
system.mem_ctrls.neitherReadNorWriteReqs            0                       # Number of requests that are neither read nor write
system.mem_ctrls.perBankRdBursts::0               335                       # Per bank write bursts
system.mem_ctrls.perBankRdBursts::1               489                       # Per bank write bursts
system.mem_ctrls.perBankRdBursts::2               247                       # Per bank write bursts
system.mem_ctrls.perBankRdBursts::3               468                       # Per bank write bursts
system.mem_ctrls.perBankRdBursts::4               368                       # Per bank write bursts
system.mem_ctrls.perBankRdBursts::5               430                       # Per bank write bursts
system.mem_ctrls.perBankRdBursts::6               390                       # Per bank write bursts
system.mem_ctrls.perBankRdBursts::7               370                       # Per bank write bursts
system.mem_ctrls.perBankRdBursts::8               415                       # Per bank write bursts
system.mem_ctrls.perBankRdBursts::9               455                       # Per bank write bursts
system.mem_ctrls.perBankRdBursts::10              277                       # Per bank write bursts
system.mem_ctrls.perBankRdBursts::11              415                       # Per bank write bursts
system.mem_ctrls.perBankRdBursts::12              431                       # Per bank write bursts
system.mem_ctrls.perBankRdBursts::13              551                       # Per bank write bursts
system.mem_ctrls.perBankRdBursts::14              591                       # Per bank write bursts
system.mem_ctrls.perBankRdBursts::15              632                       # Per bank write bursts
system.mem_ctrls.perBankWrBursts::0               134                       # Per bank write bursts
system.mem_ctrls.perBankWrBursts::1               138                       # Per bank write bursts
system.mem_ctrls.perBankWrBursts::2               128                       # Per bank write bursts
system.mem_ctrls.perBankWrBursts::3               201                       # Per bank write bursts
system.mem_ctrls.perBankWrBursts::4               152                       # Per bank write bursts
system.mem_ctrls.perBankWrBursts::5               149                       # Per bank write bursts
system.mem_ctrls.perBankWrBursts::6               193                       # Per bank write bursts
system.mem_ctrls.perBankWrBursts::7               140                       # Per bank write bursts
system.mem_ctrls.perBankWrBursts::8               135                       # Per bank write bursts
system.mem_ctrls.perBankWrBursts::9               134                       # Per bank write bursts
system.mem_ctrls.perBankWrBursts::10              138                       # Per bank write bursts
system.mem_ctrls.perBankWrBursts::11              129                       # Per bank write bursts
system.mem_ctrls.perBankWrBursts::12              157                       # Per bank write bursts
system.mem_ctrls.perBankWrBursts::13              132                       # Per bank write bursts
system.mem_ctrls.perBankWrBursts::14              175                       # Per bank write bursts
system.mem_ctrls.perBankWrBursts::15              138                       # Per bank write bursts
system.mem_ctrls.numRdRetry                         0                       # Number of times read queue was full causing retry
system.mem_ctrls.numWrRetry                         0                       # Number of times write queue was full causing retry
system.mem_ctrls.totGap                  462522347500                       # Total gap between requests
system.mem_ctrls.readPktSize::0                     0                       # Read request sizes (log2)
system.mem_ctrls.readPktSize::1                     0                       # Read request sizes (log2)
system.mem_ctrls.readPktSize::2                     0                       # Read request sizes (log2)
system.mem_ctrls.readPktSize::3                     0                       # Read request sizes (log2)
system.mem_ctrls.readPktSize::4                     0                       # Read request sizes (log2)
system.mem_ctrls.readPktSize::5                     0                       # Read request sizes (log2)
system.mem_ctrls.readPktSize::6                  6910                       # Read request sizes (log2)
system.mem_ctrls.writePktSize::0                    0                       # Write request sizes (log2)
system.mem_ctrls.writePktSize::1                    0                       # Write request sizes (log2)
system.mem_ctrls.writePktSize::2                    0                       # Write request sizes (log2)
system.mem_ctrls.writePktSize::3                    0                       # Write request sizes (log2)
system.mem_ctrls.writePktSize::4                    0                       # Write request sizes (log2)
system.mem_ctrls.writePktSize::5                    0                       # Write request sizes (log2)
system.mem_ctrls.writePktSize::6                 2391                       # Write request sizes (log2)
system.mem_ctrls.rdQLenPdf::0                    6679                       # What read queue length does an incoming req see
system.mem_ctrls.rdQLenPdf::1                     185                       # What read queue length does an incoming req see
system.mem_ctrls.rdQLenPdf::2                       0                       # What read queue length does an incoming req see
system.mem_ctrls.rdQLenPdf::3                       0                       # What read queue length does an incoming req see
system.mem_ctrls.rdQLenPdf::4                       0                       # What read queue length does an incoming req see
system.mem_ctrls.rdQLenPdf::5                       0                       # What read queue length does an incoming req see
system.mem_ctrls.rdQLenPdf::6                       0                       # What read queue length does an incoming req see
system.mem_ctrls.rdQLenPdf::7                       0                       # What read queue length does an incoming req see
system.mem_ctrls.rdQLenPdf::8                       0                       # What read queue length does an incoming req see
system.mem_ctrls.rdQLenPdf::9                       0                       # What read queue length does an incoming req see
system.mem_ctrls.rdQLenPdf::10                      0                       # What read queue length does an incoming req see
system.mem_ctrls.rdQLenPdf::11                      0                       # What read queue length does an incoming req see
system.mem_ctrls.rdQLenPdf::12                      0                       # What read queue length does an incoming req see
system.mem_ctrls.rdQLenPdf::13                      0                       # What read queue length does an incoming req see
system.mem_ctrls.rdQLenPdf::14                      0                       # What read queue length does an incoming req see
system.mem_ctrls.rdQLenPdf::15                      0                       # What read queue length does an incoming req see
system.mem_ctrls.rdQLenPdf::16                      0                       # What read queue length does an incoming req see
system.mem_ctrls.rdQLenPdf::17                      0                       # What read queue length does an incoming req see
system.mem_ctrls.rdQLenPdf::18                      0                       # What read queue length does an incoming req see
system.mem_ctrls.rdQLenPdf::19                      0                       # What read queue length does an incoming req see
system.mem_ctrls.rdQLenPdf::20                      0                       # What read queue length does an incoming req see
system.mem_ctrls.rdQLenPdf::21                      0                       # What read queue length does an incoming req see
system.mem_ctrls.rdQLenPdf::22                      0                       # What read queue length does an incoming req see
system.mem_ctrls.rdQLenPdf::23                      0                       # What read queue length does an incoming req see
system.mem_ctrls.rdQLenPdf::24                      0                       # What read queue length does an incoming req see
system.mem_ctrls.rdQLenPdf::25                      0                       # What read queue length does an incoming req see
system.mem_ctrls.rdQLenPdf::26                      0                       # What read queue length does an incoming req see
system.mem_ctrls.rdQLenPdf::27                      0                       # What read queue length does an incoming req see
system.mem_ctrls.rdQLenPdf::28                      0                       # What read queue length does an incoming req see
system.mem_ctrls.rdQLenPdf::29                      0                       # What read queue length does an incoming req see
system.mem_ctrls.rdQLenPdf::30                      0                       # What read queue length does an incoming req see
system.mem_ctrls.rdQLenPdf::31                      0                       # What read queue length does an incoming req see
system.mem_ctrls.wrQLenPdf::0                       0                       # What write queue length does an incoming req see
system.mem_ctrls.wrQLenPdf::1                       0                       # What write queue length does an incoming req see
system.mem_ctrls.wrQLenPdf::2                       0                       # What write queue length does an incoming req see
system.mem_ctrls.wrQLenPdf::3                       0                       # What write queue length does an incoming req see
system.mem_ctrls.wrQLenPdf::4                       0                       # What write queue length does an incoming req see
system.mem_ctrls.wrQLenPdf::5                       0                       # What write queue length does an incoming req see
system.mem_ctrls.wrQLenPdf::6                       0                       # What write queue length does an incoming req see
system.mem_ctrls.wrQLenPdf::7                       0                       # What write queue length does an incoming req see
system.mem_ctrls.wrQLenPdf::8                       0                       # What write queue length does an incoming req see
system.mem_ctrls.wrQLenPdf::9                       0                       # What write queue length does an incoming req see
system.mem_ctrls.wrQLenPdf::10                      0                       # What write queue length does an incoming req see
system.mem_ctrls.wrQLenPdf::11                      0                       # What write queue length does an incoming req see
system.mem_ctrls.wrQLenPdf::12                      0                       # What write queue length does an incoming req see
system.mem_ctrls.wrQLenPdf::13                      1                       # What write queue length does an incoming req see
system.mem_ctrls.wrQLenPdf::14                      1                       # What write queue length does an incoming req see
system.mem_ctrls.wrQLenPdf::15                     83                       # What write queue length does an incoming req see
system.mem_ctrls.wrQLenPdf::16                    112                       # What write queue length does an incoming req see
system.mem_ctrls.wrQLenPdf::17                    134                       # What write queue length does an incoming req see
system.mem_ctrls.wrQLenPdf::18                    160                       # What write queue length does an incoming req see
system.mem_ctrls.wrQLenPdf::19                    130                       # What write queue length does an incoming req see
system.mem_ctrls.wrQLenPdf::20                    157                       # What write queue length does an incoming req see
system.mem_ctrls.wrQLenPdf::21                    171                       # What write queue length does an incoming req see
system.mem_ctrls.wrQLenPdf::22                    122                       # What write queue length does an incoming req see
system.mem_ctrls.wrQLenPdf::23                    152                       # What write queue length does an incoming req see
system.mem_ctrls.wrQLenPdf::24                    173                       # What write queue length does an incoming req see
system.mem_ctrls.wrQLenPdf::25                    128                       # What write queue length does an incoming req see
system.mem_ctrls.wrQLenPdf::26                    130                       # What write queue length does an incoming req see
system.mem_ctrls.wrQLenPdf::27                    127                       # What write queue length does an incoming req see
system.mem_ctrls.wrQLenPdf::28                    136                       # What write queue length does an incoming req see
system.mem_ctrls.wrQLenPdf::29                    107                       # What write queue length does an incoming req see
system.mem_ctrls.wrQLenPdf::30                    112                       # What write queue length does an incoming req see
system.mem_ctrls.wrQLenPdf::31                    121                       # What write queue length does an incoming req see
system.mem_ctrls.wrQLenPdf::32                    106                       # What write queue length does an incoming req see
system.mem_ctrls.wrQLenPdf::33                      7                       # What write queue length does an incoming req see
system.mem_ctrls.wrQLenPdf::34                      4                       # What write queue length does an incoming req see
system.mem_ctrls.wrQLenPdf::35                      3                       # What write queue length does an incoming req see
system.mem_ctrls.wrQLenPdf::36                      4                       # What write queue length does an incoming req see
system.mem_ctrls.wrQLenPdf::37                      2                       # What write queue length does an incoming req see
system.mem_ctrls.wrQLenPdf::38                      1                       # What write queue length does an incoming req see
system.mem_ctrls.wrQLenPdf::39                      2                       # What write queue length does an incoming req see
system.mem_ctrls.wrQLenPdf::40                      1                       # What write queue length does an incoming req see
system.mem_ctrls.wrQLenPdf::41                      1                       # What write queue length does an incoming req see
system.mem_ctrls.wrQLenPdf::42                      1                       # What write queue length does an incoming req see
system.mem_ctrls.wrQLenPdf::43                      1                       # What write queue length does an incoming req see
system.mem_ctrls.wrQLenPdf::44                      1                       # What write queue length does an incoming req see
system.mem_ctrls.wrQLenPdf::45                      0                       # What write queue length does an incoming req see
system.mem_ctrls.wrQLenPdf::46                      0                       # What write queue length does an incoming req see
system.mem_ctrls.wrQLenPdf::47                      0                       # What write queue length does an incoming req see
system.mem_ctrls.wrQLenPdf::48                      0                       # What write queue length does an incoming req see
system.mem_ctrls.wrQLenPdf::49                      0                       # What write queue length does an incoming req see
system.mem_ctrls.wrQLenPdf::50                      0                       # What write queue length does an incoming req see
system.mem_ctrls.wrQLenPdf::51                      0                       # What write queue length does an incoming req see
system.mem_ctrls.wrQLenPdf::52                      0                       # What write queue length does an incoming req see
system.mem_ctrls.wrQLenPdf::53                      0                       # What write queue length does an incoming req see
system.mem_ctrls.wrQLenPdf::54                      0                       # What write queue length does an incoming req see
system.mem_ctrls.wrQLenPdf::55                      0                       # What write queue length does an incoming req see
system.mem_ctrls.wrQLenPdf::56                      0                       # What write queue length does an incoming req see
system.mem_ctrls.wrQLenPdf::57                      0                       # What write queue length does an incoming req see
system.mem_ctrls.wrQLenPdf::58                      0                       # What write queue length does an incoming req see
system.mem_ctrls.wrQLenPdf::59                      0                       # What write queue length does an incoming req see
system.mem_ctrls.wrQLenPdf::60                      0                       # What write queue length does an incoming req see
system.mem_ctrls.wrQLenPdf::61                      0                       # What write queue length does an incoming req see
system.mem_ctrls.wrQLenPdf::62                      0                       # What write queue length does an incoming req see
system.mem_ctrls.wrQLenPdf::63                      0                       # What write queue length does an incoming req see
system.mem_ctrls.bytesPerActivate::samples         3096                       # Bytes accessed per row activation
system.mem_ctrls.bytesPerActivate::mean    190.987080                       # Bytes accessed per row activation
system.mem_ctrls.bytesPerActivate::gmean   116.908076                       # Bytes accessed per row activation
system.mem_ctrls.bytesPerActivate::stdev   261.473567                       # Bytes accessed per row activation
system.mem_ctrls.bytesPerActivate::0-127         1648     53.23%     53.23% # Bytes accessed per row activation
system.mem_ctrls.bytesPerActivate::128-255          928     29.97%     83.20% # Bytes accessed per row activation
system.mem_ctrls.bytesPerActivate::256-383          123      3.97%     87.18% # Bytes accessed per row activation
system.mem_ctrls.bytesPerActivate::384-511           72      2.33%     89.50% # Bytes accessed per row activation
system.mem_ctrls.bytesPerActivate::512-639           44      1.42%     90.92% # Bytes accessed per row activation
system.mem_ctrls.bytesPerActivate::640-767           28      0.90%     91.83% # Bytes accessed per row activation
system.mem_ctrls.bytesPerActivate::768-895           20      0.65%     92.47% # Bytes accessed per row activation
system.mem_ctrls.bytesPerActivate::896-1023           22      0.71%     93.18% # Bytes accessed per row activation
system.mem_ctrls.bytesPerActivate::1024-1151          211      6.82%    100.00% # Bytes accessed per row activation
system.mem_ctrls.bytesPerActivate::total         3096                       # Bytes accessed per row activation
system.mem_ctrls.rdPerTurnAround::samples          103                       # Reads before turning the bus around for writes
system.mem_ctrls.rdPerTurnAround::mean     212.368932                       # Reads before turning the bus around for writes
system.mem_ctrls.rdPerTurnAround::stdev   1607.436578                       # Reads before turning the bus around for writes
system.mem_ctrls.rdPerTurnAround::0-511            99     96.12%     96.12% # Reads before turning the bus around for writes
system.mem_ctrls.rdPerTurnAround::512-1023            2      1.94%     98.06% # Reads before turning the bus around for writes
system.mem_ctrls.rdPerTurnAround::1024-1535            1      0.97%     99.03% # Reads before turning the bus around for writes
system.mem_ctrls.rdPerTurnAround::15872-16383            1      0.97%    100.00% # Reads before turning the bus around for writes
system.mem_ctrls.rdPerTurnAround::total           103                       # Reads before turning the bus around for writes
system.mem_ctrls.wrPerTurnAround::samples          103                       # Writes before turning the bus around for reads
system.mem_ctrls.wrPerTurnAround::mean      23.038835                       # Writes before turning the bus around for reads
system.mem_ctrls.wrPerTurnAround::gmean     22.558906                       # Writes before turning the bus around for reads
system.mem_ctrls.wrPerTurnAround::stdev      4.894820                       # Writes before turning the bus around for reads
system.mem_ctrls.wrPerTurnAround::16               19     18.45%     18.45% # Writes before turning the bus around for reads
system.mem_ctrls.wrPerTurnAround::21               20     19.42%     37.86% # Writes before turning the bus around for reads
system.mem_ctrls.wrPerTurnAround::22                3      2.91%     40.78% # Writes before turning the bus around for reads
system.mem_ctrls.wrPerTurnAround::24               35     33.98%     74.76% # Writes before turning the bus around for reads
system.mem_ctrls.wrPerTurnAround::25                5      4.85%     79.61% # Writes before turning the bus around for reads
system.mem_ctrls.wrPerTurnAround::27                4      3.88%     83.50% # Writes before turning the bus around for reads
system.mem_ctrls.wrPerTurnAround::28               14     13.59%     97.09% # Writes before turning the bus around for reads
system.mem_ctrls.wrPerTurnAround::29                1      0.97%     98.06% # Writes before turning the bus around for reads
system.mem_ctrls.wrPerTurnAround::44                1      0.97%     99.03% # Writes before turning the bus around for reads
system.mem_ctrls.wrPerTurnAround::45                1      0.97%    100.00% # Writes before turning the bus around for reads
system.mem_ctrls.wrPerTurnAround::total           103                       # Writes before turning the bus around for reads
system.mem_ctrls.totQLat                     70015995                       # Total ticks spent queuing
system.mem_ctrls.totMemAccLat               198715995                       # Total ticks spent from burst creation until serviced by the DRAM
system.mem_ctrls.totBusLat                   34320000                       # Total ticks spent in databus transfers
system.mem_ctrls.avgQLat                     10200.47                       # Average queueing delay per DRAM burst
system.mem_ctrls.avgBusLat                    5000.00                       # Average bus latency per DRAM burst
system.mem_ctrls.avgMemAccLat                28950.47                       # Average memory access latency per DRAM burst
system.mem_ctrls.avgRdBW                         0.95                       # Average DRAM read bandwidth in MiByte/s
system.mem_ctrls.avgWrBW                         0.33                       # Average achieved write bandwidth in MiByte/s
system.mem_ctrls.avgRdBWSys                      0.96                       # Average system read bandwidth in MiByte/s
system.mem_ctrls.avgWrBWSys                      0.33                       # Average system write bandwidth in MiByte/s
system.mem_ctrls.peakBW                      12800.00                       # Theoretical peak bandwidth in MiByte/s
system.mem_ctrls.busUtil                         0.01                       # Data bus utilization in percentage
system.mem_ctrls.busUtilRead                     0.01                       # Data bus utilization in percentage for reads
system.mem_ctrls.busUtilWrite                    0.00                       # Data bus utilization in percentage for writes
system.mem_ctrls.avgRdQLen                       1.00                       # Average read queue length when enqueuing
system.mem_ctrls.avgWrQLen                      28.00                       # Average write queue length when enqueuing
system.mem_ctrls.readRowHits                     4051                       # Number of row buffer hits during reads
system.mem_ctrls.writeRowHits                    2090                       # Number of row buffer hits during writes
system.mem_ctrls.readRowHitRate                 59.02                       # Row buffer hit rate for reads
system.mem_ctrls.writeRowHitRate                87.41                       # Row buffer hit rate for writes
system.mem_ctrls.avgGap                   49728238.63                       # Average gap between requests
system.mem_ctrls.pageHitRate                    66.35                       # Row buffer hit rate, read and write combined
system.mem_ctrls_0.actEnergy                 24948000                       # Energy for activate commands per rank (pJ)
system.mem_ctrls_0.preEnergy                 13612500                       # Energy for precharge commands per rank (pJ)
system.mem_ctrls_0.readEnergy                84676800                       # Energy for read commands per rank (pJ)
system.mem_ctrls_0.writeEnergy                8002800                       # Energy for write commands per rank (pJ)
system.mem_ctrls_0.refreshEnergy          30424602000                       # Energy for refresh commands per rank (pJ)
system.mem_ctrls_0.actBackEnergy          12711046455                       # Energy for active background per rank (pJ)
system.mem_ctrls_0.preBackEnergy         268337559000                       # Energy for precharge background per rank (pJ)
system.mem_ctrls_0.totalEnergy           311604447555                       # Total energy per rank (pJ)
system.mem_ctrls_0.averagePower            668.947992                       # Core power per rank (mW)
system.mem_ctrls_0.memoryStateTime::IDLE 445214487500                       # Time in different power states
system.mem_ctrls_0.memoryStateTime::REF   15444520000                       # Time in different power states
system.mem_ctrls_0.memoryStateTime::PRE_PDN            0                       # Time in different power states
system.mem_ctrls_0.memoryStateTime::ACT    1863511000                       # Time in different power states
system.mem_ctrls_0.memoryStateTime::ACT_PDN            0                       # Time in different power states
system.mem_ctrls_1.actEnergy                 26996760                       # Energy for activate commands per rank (pJ)
system.mem_ctrls_1.preEnergy                 14730375                       # Energy for precharge commands per rank (pJ)
system.mem_ctrls_1.readEnergy                86143200                       # Energy for read commands per rank (pJ)
system.mem_ctrls_1.writeEnergy                7374240                       # Energy for write commands per rank (pJ)
system.mem_ctrls_1.refreshEnergy          30424602000                       # Energy for refresh commands per rank (pJ)
system.mem_ctrls_1.actBackEnergy          13186278540                       # Energy for active background per rank (pJ)
system.mem_ctrls_1.preBackEnergy         267920680500                       # Energy for precharge background per rank (pJ)
system.mem_ctrls_1.totalEnergy           311666805615                       # Total energy per rank (pJ)
system.mem_ctrls_1.averagePower            669.081881                       # Core power per rank (mW)
system.mem_ctrls_1.memoryStateTime::IDLE 444530852500                       # Time in different power states
system.mem_ctrls_1.memoryStateTime::REF   15444520000                       # Time in different power states
system.mem_ctrls_1.memoryStateTime::PRE_PDN            0                       # Time in different power states
system.mem_ctrls_1.memoryStateTime::ACT    2543436250                       # Time in different power states
system.mem_ctrls_1.memoryStateTime::ACT_PDN            0                       # Time in different power states
system.cpu_voltage_domain.voltage                   1                       # Voltage in Volts
system.cpu_clk_domain.clock                       500                       # Clock period in ticks
system.cpu0.apic_clk_domain.clock                8000                       # Clock period in ticks
system.cpu0.numCycles                       925432133                       # number of cpu cycles simulated
system.cpu0.numWorkItemsStarted                     0                       # number of work items this cpu started
system.cpu0.numWorkItemsCompleted                   0                       # number of work items this cpu completed
system.cpu0.kern.inst.arm                           0                       # number of arm instructions executed
system.cpu0.kern.inst.quiesce                       0                       # number of quiesce instructions executed
system.cpu0.committedInsts                     960018                       # Number of instructions committed
system.cpu0.committedOps                      1899252                       # Number of ops (including micro ops) committed
system.cpu0.num_int_alu_accesses              1867012                       # Number of integer alu accesses
system.cpu0.num_fp_alu_accesses                   370                       # Number of float alu accesses
system.cpu0.num_func_calls                      45978                       # number of times a function call or return occured
system.cpu0.num_conditional_control_insts       144437                       # number of instructions that are conditional controls
system.cpu0.num_int_insts                     1867012                       # number of integer instructions
system.cpu0.num_fp_insts                          370                       # number of float instructions
system.cpu0.num_int_register_reads            3824872                       # number of times the integer registers were read
system.cpu0.num_int_register_writes           1515051                       # number of times the integer registers were written
system.cpu0.num_fp_register_reads                 594                       # number of times the floating registers were read
system.cpu0.num_fp_register_writes                261                       # number of times the floating registers were written
system.cpu0.num_cc_register_reads             1063171                       # number of times the CC registers were read
system.cpu0.num_cc_register_writes             615641                       # number of times the CC registers were written
system.cpu0.num_mem_refs                       448780                       # number of memory refs
system.cpu0.num_load_insts                     269610                       # Number of load instructions
system.cpu0.num_store_insts                    179170                       # Number of store instructions
system.cpu0.num_idle_cycles              921267532.098596                       # Number of idle cycles
system.cpu0.num_busy_cycles              4164600.901404                       # Number of busy cycles
system.cpu0.not_idle_fraction                0.004500                       # Percentage of non-idle cycles
system.cpu0.idle_fraction                    0.995500                       # Percentage of idle cycles
system.cpu0.Branches                           204883                       # Number of branches fetched
system.cpu0.op_class::No_OpClass                21692      1.14%      1.14% # Class of executed instruction
system.cpu0.op_class::IntAlu                  1419864     74.76%     75.90% # Class of executed instruction
system.cpu0.op_class::IntMult                    2663      0.14%     76.04% # Class of executed instruction
system.cpu0.op_class::IntDiv                     6095      0.32%     76.36% # Class of executed instruction
system.cpu0.op_class::FloatAdd                    244      0.01%     76.37% # Class of executed instruction
system.cpu0.op_class::FloatCmp                      0      0.00%     76.37% # Class of executed instruction
system.cpu0.op_class::FloatCvt                      0      0.00%     76.37% # Class of executed instruction
system.cpu0.op_class::FloatMult                     0      0.00%     76.37% # Class of executed instruction
system.cpu0.op_class::FloatDiv                      0      0.00%     76.37% # Class of executed instruction
system.cpu0.op_class::FloatSqrt                     0      0.00%     76.37% # Class of executed instruction
system.cpu0.op_class::SimdAdd                       0      0.00%     76.37% # Class of executed instruction
system.cpu0.op_class::SimdAddAcc                    0      0.00%     76.37% # Class of executed instruction
system.cpu0.op_class::SimdAlu                       0      0.00%     76.37% # Class of executed instruction
system.cpu0.op_class::SimdCmp                       0      0.00%     76.37% # Class of executed instruction
system.cpu0.op_class::SimdCvt                       0      0.00%     76.37% # Class of executed instruction
system.cpu0.op_class::SimdMisc                      0      0.00%     76.37% # Class of executed instruction
system.cpu0.op_class::SimdMult                      0      0.00%     76.37% # Class of executed instruction
system.cpu0.op_class::SimdMultAcc                   0      0.00%     76.37% # Class of executed instruction
system.cpu0.op_class::SimdShift                     0      0.00%     76.37% # Class of executed instruction
system.cpu0.op_class::SimdShiftAcc                  0      0.00%     76.37% # Class of executed instruction
system.cpu0.op_class::SimdSqrt                      0      0.00%     76.37% # Class of executed instruction
system.cpu0.op_class::SimdFloatAdd                  0      0.00%     76.37% # Class of executed instruction
system.cpu0.op_class::SimdFloatAlu                  0      0.00%     76.37% # Class of executed instruction
system.cpu0.op_class::SimdFloatCmp                  0      0.00%     76.37% # Class of executed instruction
system.cpu0.op_class::SimdFloatCvt                  0      0.00%     76.37% # Class of executed instruction
system.cpu0.op_class::SimdFloatDiv                  0      0.00%     76.37% # Class of executed instruction
system.cpu0.op_class::SimdFloatMisc                 0      0.00%     76.37% # Class of executed instruction
system.cpu0.op_class::SimdFloatMult                 0      0.00%     76.37% # Class of executed instruction
system.cpu0.op_class::SimdFloatMultAcc              0      0.00%     76.37% # Class of executed instruction
system.cpu0.op_class::SimdFloatSqrt                 0      0.00%     76.37% # Class of executed instruction
system.cpu0.op_class::MemRead                  269610     14.19%     90.57% # Class of executed instruction
system.cpu0.op_class::MemWrite                 179170      9.43%    100.00% # Class of executed instruction
system.cpu0.op_class::IprAccess                     0      0.00%    100.00% # Class of executed instruction
system.cpu0.op_class::InstPrefetch                  0      0.00%    100.00% # Class of executed instruction
system.cpu0.op_class::total                   1899338                       # Class of executed instruction
system.cpu1.apic_clk_domain.clock                8000                       # Clock period in ticks
system.cpu1.numCycles                       926023410                       # number of cpu cycles simulated
system.cpu1.numWorkItemsStarted                     0                       # number of work items this cpu started
system.cpu1.numWorkItemsCompleted                   0                       # number of work items this cpu completed
system.cpu1.kern.inst.arm                           0                       # number of arm instructions executed
system.cpu1.kern.inst.quiesce                       0                       # number of quiesce instructions executed
system.cpu1.committedInsts                     392320                       # Number of instructions committed
system.cpu1.committedOps                       818154                       # Number of ops (including micro ops) committed
system.cpu1.num_int_alu_accesses               803189                       # Number of integer alu accesses
system.cpu1.num_fp_alu_accesses                   158                       # Number of float alu accesses
system.cpu1.num_func_calls                      21476                       # number of times a function call or return occured
system.cpu1.num_conditional_control_insts        61897                       # number of instructions that are conditional controls
system.cpu1.num_int_insts                      803189                       # number of integer instructions
system.cpu1.num_fp_insts                          158                       # number of float instructions
system.cpu1.num_int_register_reads            1605829                       # number of times the integer registers were read
system.cpu1.num_int_register_writes            658812                       # number of times the integer registers were written
system.cpu1.num_fp_register_reads                 196                       # number of times the floating registers were read
system.cpu1.num_fp_register_writes                137                       # number of times the floating registers were written
system.cpu1.num_cc_register_reads              470008                       # number of times the CC registers were read
system.cpu1.num_cc_register_writes             254986                       # number of times the CC registers were written
system.cpu1.num_mem_refs                       187743                       # number of memory refs
system.cpu1.num_load_insts                     115997                       # Number of load instructions
system.cpu1.num_store_insts                     71746                       # Number of store instructions
system.cpu1.num_idle_cycles              924275227.616496                       # Number of idle cycles
system.cpu1.num_busy_cycles              1748182.383504                       # Number of busy cycles
system.cpu1.not_idle_fraction                0.001888                       # Percentage of non-idle cycles
system.cpu1.idle_fraction                    0.998112                       # Percentage of idle cycles
system.cpu1.Branches                            90405                       # Number of branches fetched
system.cpu1.op_class::No_OpClass                11068      1.35%      1.35% # Class of executed instruction
system.cpu1.op_class::IntAlu                   613927     75.04%     76.39% # Class of executed instruction
system.cpu1.op_class::IntMult                    1692      0.21%     76.60% # Class of executed instruction
system.cpu1.op_class::IntDiv                     3643      0.45%     77.04% # Class of executed instruction
system.cpu1.op_class::FloatAdd                     86      0.01%     77.05% # Class of executed instruction
system.cpu1.op_class::FloatCmp                      0      0.00%     77.05% # Class of executed instruction
system.cpu1.op_class::FloatCvt                      0      0.00%     77.05% # Class of executed instruction
system.cpu1.op_class::FloatMult                     0      0.00%     77.05% # Class of executed instruction
system.cpu1.op_class::FloatDiv                      0      0.00%     77.05% # Class of executed instruction
system.cpu1.op_class::FloatSqrt                     0      0.00%     77.05% # Class of executed instruction
system.cpu1.op_class::SimdAdd                       0      0.00%     77.05% # Class of executed instruction
system.cpu1.op_class::SimdAddAcc                    0      0.00%     77.05% # Class of executed instruction
system.cpu1.op_class::SimdAlu                       0      0.00%     77.05% # Class of executed instruction
system.cpu1.op_class::SimdCmp                       0      0.00%     77.05% # Class of executed instruction
system.cpu1.op_class::SimdCvt                       0      0.00%     77.05% # Class of executed instruction
system.cpu1.op_class::SimdMisc                      0      0.00%     77.05% # Class of executed instruction
system.cpu1.op_class::SimdMult                      0      0.00%     77.05% # Class of executed instruction
system.cpu1.op_class::SimdMultAcc                   0      0.00%     77.05% # Class of executed instruction
system.cpu1.op_class::SimdShift                     0      0.00%     77.05% # Class of executed instruction
system.cpu1.op_class::SimdShiftAcc                  0      0.00%     77.05% # Class of executed instruction
system.cpu1.op_class::SimdSqrt                      0      0.00%     77.05% # Class of executed instruction
system.cpu1.op_class::SimdFloatAdd                  0      0.00%     77.05% # Class of executed instruction
system.cpu1.op_class::SimdFloatAlu                  0      0.00%     77.05% # Class of executed instruction
system.cpu1.op_class::SimdFloatCmp                  0      0.00%     77.05% # Class of executed instruction
system.cpu1.op_class::SimdFloatCvt                  0      0.00%     77.05% # Class of executed instruction
system.cpu1.op_class::SimdFloatDiv                  0      0.00%     77.05% # Class of executed instruction
system.cpu1.op_class::SimdFloatMisc                 0      0.00%     77.05% # Class of executed instruction
system.cpu1.op_class::SimdFloatMult                 0      0.00%     77.05% # Class of executed instruction
system.cpu1.op_class::SimdFloatMultAcc              0      0.00%     77.05% # Class of executed instruction
system.cpu1.op_class::SimdFloatSqrt                 0      0.00%     77.05% # Class of executed instruction
system.cpu1.op_class::MemRead                  115997     14.18%     91.23% # Class of executed instruction
system.cpu1.op_class::MemWrite                  71746      8.77%    100.00% # Class of executed instruction
system.cpu1.op_class::IprAccess                     0      0.00%    100.00% # Class of executed instruction
system.cpu1.op_class::InstPrefetch                  0      0.00%    100.00% # Class of executed instruction
system.cpu1.op_class::total                    818159                       # Class of executed instruction
system.cpu2.apic_clk_domain.clock                8000                       # Clock period in ticks
system.cpu2.numCycles                       923267220                       # number of cpu cycles simulated
system.cpu2.numWorkItemsStarted                     0                       # number of work items this cpu started
system.cpu2.numWorkItemsCompleted                   0                       # number of work items this cpu completed
system.cpu2.kern.inst.arm                           0                       # number of arm instructions executed
system.cpu2.kern.inst.quiesce                       0                       # number of quiesce instructions executed
system.cpu2.committedInsts                  265834620                       # Number of instructions committed
system.cpu2.committedOps                    479341193                       # Number of ops (including micro ops) committed
system.cpu2.num_int_alu_accesses            269712660                       # Number of integer alu accesses
system.cpu2.num_fp_alu_accesses             270604333                       # Number of float alu accesses
system.cpu2.num_func_calls                    9864640                       # number of times a function call or return occured
system.cpu2.num_conditional_control_insts     15015895                       # number of instructions that are conditional controls
system.cpu2.num_int_insts                   269712660                       # number of integer instructions
system.cpu2.num_fp_insts                    270604333                       # number of float instructions
system.cpu2.num_int_register_reads          512819410                       # number of times the integer registers were read
system.cpu2.num_int_register_writes         176192040                       # number of times the integer registers were written
system.cpu2.num_fp_register_reads           446701796                       # number of times the floating registers were read
system.cpu2.num_fp_register_writes          249458581                       # number of times the floating registers were written
system.cpu2.num_cc_register_reads           107007331                       # number of times the CC registers were read
system.cpu2.num_cc_register_writes           83031894                       # number of times the CC registers were written
system.cpu2.num_mem_refs                     84047324                       # number of memory refs
system.cpu2.num_load_insts                   62887770                       # Number of load instructions
system.cpu2.num_store_insts                  21159554                       # Number of store instructions
system.cpu2.num_idle_cycles              3106765.380267                       # Number of idle cycles
system.cpu2.num_busy_cycles              920160454.619732                       # Number of busy cycles
system.cpu2.not_idle_fraction                0.996635                       # Percentage of non-idle cycles
system.cpu2.idle_fraction                    0.003365                       # Percentage of idle cycles
system.cpu2.Branches                         27066237                       # Number of branches fetched
system.cpu2.op_class::No_OpClass                10588      0.00%      0.00% # Class of executed instruction
system.cpu2.op_class::IntAlu                244909945     51.09%     51.10% # Class of executed instruction
system.cpu2.op_class::IntMult                    2217      0.00%     51.10% # Class of executed instruction
system.cpu2.op_class::IntDiv                     1959      0.00%     51.10% # Class of executed instruction
system.cpu2.op_class::FloatAdd              150369260     31.37%     82.47% # Class of executed instruction
system.cpu2.op_class::FloatCmp                      0      0.00%     82.47% # Class of executed instruction
system.cpu2.op_class::FloatCvt                      0      0.00%     82.47% # Class of executed instruction
system.cpu2.op_class::FloatMult                     0      0.00%     82.47% # Class of executed instruction
system.cpu2.op_class::FloatDiv                      0      0.00%     82.47% # Class of executed instruction
system.cpu2.op_class::FloatSqrt                     0      0.00%     82.47% # Class of executed instruction
system.cpu2.op_class::SimdAdd                       0      0.00%     82.47% # Class of executed instruction
system.cpu2.op_class::SimdAddAcc                    0      0.00%     82.47% # Class of executed instruction
system.cpu2.op_class::SimdAlu                       0      0.00%     82.47% # Class of executed instruction
system.cpu2.op_class::SimdCmp                       0      0.00%     82.47% # Class of executed instruction
system.cpu2.op_class::SimdCvt                       0      0.00%     82.47% # Class of executed instruction
system.cpu2.op_class::SimdMisc                      0      0.00%     82.47% # Class of executed instruction
system.cpu2.op_class::SimdMult                      0      0.00%     82.47% # Class of executed instruction
system.cpu2.op_class::SimdMultAcc                   0      0.00%     82.47% # Class of executed instruction
system.cpu2.op_class::SimdShift                     0      0.00%     82.47% # Class of executed instruction
system.cpu2.op_class::SimdShiftAcc                  0      0.00%     82.47% # Class of executed instruction
system.cpu2.op_class::SimdSqrt                      0      0.00%     82.47% # Class of executed instruction
system.cpu2.op_class::SimdFloatAdd                  0      0.00%     82.47% # Class of executed instruction
system.cpu2.op_class::SimdFloatAlu                  0      0.00%     82.47% # Class of executed instruction
system.cpu2.op_class::SimdFloatCmp                  0      0.00%     82.47% # Class of executed instruction
system.cpu2.op_class::SimdFloatCvt                  0      0.00%     82.47% # Class of executed instruction
system.cpu2.op_class::SimdFloatDiv                  0      0.00%     82.47% # Class of executed instruction
system.cpu2.op_class::SimdFloatMisc                 0      0.00%     82.47% # Class of executed instruction
system.cpu2.op_class::SimdFloatMult                 0      0.00%     82.47% # Class of executed instruction
system.cpu2.op_class::SimdFloatMultAcc              0      0.00%     82.47% # Class of executed instruction
system.cpu2.op_class::SimdFloatSqrt                 0      0.00%     82.47% # Class of executed instruction
system.cpu2.op_class::MemRead                62887770     13.12%     95.59% # Class of executed instruction
system.cpu2.op_class::MemWrite               21159554      4.41%    100.00% # Class of executed instruction
system.cpu2.op_class::IprAccess                     0      0.00%    100.00% # Class of executed instruction
system.cpu2.op_class::InstPrefetch                  0      0.00%    100.00% # Class of executed instruction
system.cpu2.op_class::total                 479341293                       # Class of executed instruction
system.cpu3.apic_clk_domain.clock                8000                       # Clock period in ticks
system.cpu3.numCycles                       923892775                       # number of cpu cycles simulated
system.cpu3.numWorkItemsStarted                     0                       # number of work items this cpu started
system.cpu3.numWorkItemsCompleted                   0                       # number of work items this cpu completed
system.cpu3.kern.inst.arm                           0                       # number of arm instructions executed
system.cpu3.kern.inst.quiesce                       0                       # number of quiesce instructions executed
system.cpu3.committedInsts                     320845                       # Number of instructions committed
system.cpu3.committedOps                       680395                       # Number of ops (including micro ops) committed
system.cpu3.num_int_alu_accesses               667160                       # Number of integer alu accesses
system.cpu3.num_fp_alu_accesses                    39                       # Number of float alu accesses
system.cpu3.num_func_calls                      19366                       # number of times a function call or return occured
system.cpu3.num_conditional_control_insts        44839                       # number of instructions that are conditional controls
system.cpu3.num_int_insts                      667160                       # number of integer instructions
system.cpu3.num_fp_insts                           39                       # number of float instructions
system.cpu3.num_int_register_reads            1362620                       # number of times the integer registers were read
system.cpu3.num_int_register_writes            547173                       # number of times the integer registers were written
system.cpu3.num_fp_register_reads                  63                       # number of times the floating registers were read
system.cpu3.num_fp_register_writes                 31                       # number of times the floating registers were written
system.cpu3.num_cc_register_reads              354835                       # number of times the CC registers were read
system.cpu3.num_cc_register_writes             199460                       # number of times the CC registers were written
system.cpu3.num_mem_refs                       168779                       # number of memory refs
system.cpu3.num_load_insts                     103802                       # Number of load instructions
system.cpu3.num_store_insts                     64977                       # Number of store instructions
system.cpu3.num_idle_cycles              922468381.169327                       # Number of idle cycles
system.cpu3.num_busy_cycles              1424393.830673                       # Number of busy cycles
system.cpu3.not_idle_fraction                0.001542                       # Percentage of non-idle cycles
system.cpu3.idle_fraction                    0.998458                       # Percentage of idle cycles
system.cpu3.Branches                            70445                       # Number of branches fetched
system.cpu3.op_class::No_OpClass                 9908      1.46%      1.46% # Class of executed instruction
system.cpu3.op_class::IntAlu                   497321     73.09%     74.55% # Class of executed instruction
system.cpu3.op_class::IntMult                    1384      0.20%     74.75% # Class of executed instruction
system.cpu3.op_class::IntDiv                     2995      0.44%     75.19% # Class of executed instruction
system.cpu3.op_class::FloatAdd                     30      0.00%     75.19% # Class of executed instruction
system.cpu3.op_class::FloatCmp                      0      0.00%     75.19% # Class of executed instruction
system.cpu3.op_class::FloatCvt                      0      0.00%     75.19% # Class of executed instruction
system.cpu3.op_class::FloatMult                     0      0.00%     75.19% # Class of executed instruction
system.cpu3.op_class::FloatDiv                      0      0.00%     75.19% # Class of executed instruction
system.cpu3.op_class::FloatSqrt                     0      0.00%     75.19% # Class of executed instruction
system.cpu3.op_class::SimdAdd                       0      0.00%     75.19% # Class of executed instruction
system.cpu3.op_class::SimdAddAcc                    0      0.00%     75.19% # Class of executed instruction
system.cpu3.op_class::SimdAlu                       0      0.00%     75.19% # Class of executed instruction
system.cpu3.op_class::SimdCmp                       0      0.00%     75.19% # Class of executed instruction
system.cpu3.op_class::SimdCvt                       0      0.00%     75.19% # Class of executed instruction
system.cpu3.op_class::SimdMisc                      0      0.00%     75.19% # Class of executed instruction
system.cpu3.op_class::SimdMult                      0      0.00%     75.19% # Class of executed instruction
system.cpu3.op_class::SimdMultAcc                   0      0.00%     75.19% # Class of executed instruction
system.cpu3.op_class::SimdShift                     0      0.00%     75.19% # Class of executed instruction
system.cpu3.op_class::SimdShiftAcc                  0      0.00%     75.19% # Class of executed instruction
system.cpu3.op_class::SimdSqrt                      0      0.00%     75.19% # Class of executed instruction
system.cpu3.op_class::SimdFloatAdd                  0      0.00%     75.19% # Class of executed instruction
system.cpu3.op_class::SimdFloatAlu                  0      0.00%     75.19% # Class of executed instruction
system.cpu3.op_class::SimdFloatCmp                  0      0.00%     75.19% # Class of executed instruction
system.cpu3.op_class::SimdFloatCvt                  0      0.00%     75.19% # Class of executed instruction
system.cpu3.op_class::SimdFloatDiv                  0      0.00%     75.19% # Class of executed instruction
system.cpu3.op_class::SimdFloatMisc                 0      0.00%     75.19% # Class of executed instruction
system.cpu3.op_class::SimdFloatMult                 0      0.00%     75.19% # Class of executed instruction
system.cpu3.op_class::SimdFloatMultAcc              0      0.00%     75.19% # Class of executed instruction
system.cpu3.op_class::SimdFloatSqrt                 0      0.00%     75.19% # Class of executed instruction
system.cpu3.op_class::MemRead                  103802     15.26%     90.45% # Class of executed instruction
system.cpu3.op_class::MemWrite                  64977      9.55%    100.00% # Class of executed instruction
system.cpu3.op_class::IprAccess                     0      0.00%    100.00% # Class of executed instruction
system.cpu3.op_class::InstPrefetch                  0      0.00%    100.00% # Class of executed instruction
system.cpu3.op_class::total                    680417                       # Class of executed instruction
system.iobus.trans_dist::ReadReq                   97                       # Transaction distribution
system.iobus.trans_dist::ReadResp                  97                       # Transaction distribution
system.iobus.trans_dist::WriteReq                 559                       # Transaction distribution
system.iobus.trans_dist::WriteResp                559                       # Transaction distribution
system.iobus.trans_dist::MessageReq                17                       # Transaction distribution
system.iobus.trans_dist::MessageResp               17                       # Transaction distribution
system.iobus.pkt_count_system.pc.south_bridge.io_apic.int_master::system.ruby.l1_cntrl0.sequencer.pio-slave-port            2                       # Packet count per connected master and slave (bytes)
system.iobus.pkt_count_system.pc.south_bridge.io_apic.int_master::system.ruby.l1_cntrl1.sequencer.pio-slave-port            4                       # Packet count per connected master and slave (bytes)
system.iobus.pkt_count_system.pc.south_bridge.io_apic.int_master::system.ruby.l1_cntrl2.sequencer.pio-slave-port            2                       # Packet count per connected master and slave (bytes)
system.iobus.pkt_count_system.pc.south_bridge.io_apic.int_master::system.ruby.l1_cntrl3.sequencer.pio-slave-port            2                       # Packet count per connected master and slave (bytes)
system.iobus.pkt_count_system.pc.south_bridge.io_apic.int_master::total           10                       # Packet count per connected master and slave (bytes)
system.iobus.pkt_count_system.ruby.l1_cntrl0.sequencer.mem-master-port::system.pc.south_bridge.io_apic.pio            8                       # Packet count per connected master and slave (bytes)
system.iobus.pkt_count_system.ruby.l1_cntrl0.sequencer.mem-master-port::system.pc.com_1.pio            2                       # Packet count per connected master and slave (bytes)
system.iobus.pkt_count_system.ruby.l1_cntrl0.sequencer.mem-master-port::system.ruby.l1_cntrl0.sequencer.pio-slave-port          264                       # Packet count per connected master and slave (bytes)
system.iobus.pkt_count_system.ruby.l1_cntrl0.sequencer.mem-master-port::system.ruby.l1_cntrl1.sequencer.pio-slave-port            4                       # Packet count per connected master and slave (bytes)
system.iobus.pkt_count_system.ruby.l1_cntrl0.sequencer.mem-master-port::system.ruby.l1_cntrl2.sequencer.pio-slave-port            2                       # Packet count per connected master and slave (bytes)
system.iobus.pkt_count_system.ruby.l1_cntrl0.sequencer.mem-master-port::system.ruby.l1_cntrl3.sequencer.pio-slave-port            2                       # Packet count per connected master and slave (bytes)
system.iobus.pkt_count_system.ruby.l1_cntrl0.sequencer.mem-master-port::total          282                       # Packet count per connected master and slave (bytes)
system.iobus.pkt_count_system.ruby.l1_cntrl1.sequencer.mem-master-port::system.pc.south_bridge.ide.pio           80                       # Packet count per connected master and slave (bytes)
system.iobus.pkt_count_system.ruby.l1_cntrl1.sequencer.mem-master-port::system.pc.south_bridge.io_apic.pio            8                       # Packet count per connected master and slave (bytes)
system.iobus.pkt_count_system.ruby.l1_cntrl1.sequencer.mem-master-port::system.ruby.l1_cntrl1.sequencer.pio-slave-port          250                       # Packet count per connected master and slave (bytes)
system.iobus.pkt_count_system.ruby.l1_cntrl1.sequencer.mem-master-port::system.ruby.l1_cntrl2.sequencer.pio-slave-port            2                       # Packet count per connected master and slave (bytes)
system.iobus.pkt_count_system.ruby.l1_cntrl1.sequencer.mem-master-port::total          340                       # Packet count per connected master and slave (bytes)
system.iobus.pkt_count_system.ruby.l1_cntrl2.sequencer.mem-master-port::system.pc.south_bridge.ide.pio           12                       # Packet count per connected master and slave (bytes)
system.iobus.pkt_count_system.ruby.l1_cntrl2.sequencer.mem-master-port::system.ruby.l1_cntrl0.sequencer.pio-slave-port            6                       # Packet count per connected master and slave (bytes)
system.iobus.pkt_count_system.ruby.l1_cntrl2.sequencer.mem-master-port::system.ruby.l1_cntrl1.sequencer.pio-slave-port            4                       # Packet count per connected master and slave (bytes)
system.iobus.pkt_count_system.ruby.l1_cntrl2.sequencer.mem-master-port::system.ruby.l1_cntrl2.sequencer.pio-slave-port          266                       # Packet count per connected master and slave (bytes)
system.iobus.pkt_count_system.ruby.l1_cntrl2.sequencer.mem-master-port::system.ruby.l1_cntrl3.sequencer.pio-slave-port            2                       # Packet count per connected master and slave (bytes)
system.iobus.pkt_count_system.ruby.l1_cntrl2.sequencer.mem-master-port::total          290                       # Packet count per connected master and slave (bytes)
system.iobus.pkt_count_system.ruby.l1_cntrl3.sequencer.mem-master-port::system.pc.south_bridge.io_apic.pio            6                       # Packet count per connected master and slave (bytes)
system.iobus.pkt_count_system.ruby.l1_cntrl3.sequencer.mem-master-port::system.pc.com_1.pio          174                       # Packet count per connected master and slave (bytes)
system.iobus.pkt_count_system.ruby.l1_cntrl3.sequencer.mem-master-port::system.ruby.l1_cntrl0.sequencer.pio-slave-port            2                       # Packet count per connected master and slave (bytes)
system.iobus.pkt_count_system.ruby.l1_cntrl3.sequencer.mem-master-port::system.ruby.l1_cntrl3.sequencer.pio-slave-port          242                       # Packet count per connected master and slave (bytes)
system.iobus.pkt_count_system.ruby.l1_cntrl3.sequencer.mem-master-port::total          424                       # Packet count per connected master and slave (bytes)
system.iobus.pkt_count::total                    1346                       # Packet count per connected master and slave (bytes)
system.iobus.pkt_size_system.pc.south_bridge.io_apic.int_master::system.ruby.l1_cntrl0.sequencer.pio-slave-port            4                       # Cumulative packet size per connected master and slave (bytes)
system.iobus.pkt_size_system.pc.south_bridge.io_apic.int_master::system.ruby.l1_cntrl1.sequencer.pio-slave-port            8                       # Cumulative packet size per connected master and slave (bytes)
system.iobus.pkt_size_system.pc.south_bridge.io_apic.int_master::system.ruby.l1_cntrl2.sequencer.pio-slave-port            4                       # Cumulative packet size per connected master and slave (bytes)
system.iobus.pkt_size_system.pc.south_bridge.io_apic.int_master::system.ruby.l1_cntrl3.sequencer.pio-slave-port            4                       # Cumulative packet size per connected master and slave (bytes)
system.iobus.pkt_size_system.pc.south_bridge.io_apic.int_master::total           20                       # Cumulative packet size per connected master and slave (bytes)
system.iobus.pkt_size_system.ruby.l1_cntrl0.sequencer.mem-master-port::system.pc.south_bridge.io_apic.pio           16                       # Cumulative packet size per connected master and slave (bytes)
system.iobus.pkt_size_system.ruby.l1_cntrl0.sequencer.mem-master-port::system.pc.com_1.pio            1                       # Cumulative packet size per connected master and slave (bytes)
system.iobus.pkt_size_system.ruby.l1_cntrl0.sequencer.mem-master-port::system.ruby.l1_cntrl0.sequencer.pio-slave-port          528                       # Cumulative packet size per connected master and slave (bytes)
system.iobus.pkt_size_system.ruby.l1_cntrl0.sequencer.mem-master-port::system.ruby.l1_cntrl1.sequencer.pio-slave-port            8                       # Cumulative packet size per connected master and slave (bytes)
system.iobus.pkt_size_system.ruby.l1_cntrl0.sequencer.mem-master-port::system.ruby.l1_cntrl2.sequencer.pio-slave-port            4                       # Cumulative packet size per connected master and slave (bytes)
system.iobus.pkt_size_system.ruby.l1_cntrl0.sequencer.mem-master-port::system.ruby.l1_cntrl3.sequencer.pio-slave-port            4                       # Cumulative packet size per connected master and slave (bytes)
system.iobus.pkt_size_system.ruby.l1_cntrl0.sequencer.mem-master-port::total          561                       # Cumulative packet size per connected master and slave (bytes)
system.iobus.pkt_size_system.ruby.l1_cntrl1.sequencer.mem-master-port::system.pc.south_bridge.ide.pio           46                       # Cumulative packet size per connected master and slave (bytes)
system.iobus.pkt_size_system.ruby.l1_cntrl1.sequencer.mem-master-port::system.pc.south_bridge.io_apic.pio           16                       # Cumulative packet size per connected master and slave (bytes)
system.iobus.pkt_size_system.ruby.l1_cntrl1.sequencer.mem-master-port::system.ruby.l1_cntrl1.sequencer.pio-slave-port          500                       # Cumulative packet size per connected master and slave (bytes)
system.iobus.pkt_size_system.ruby.l1_cntrl1.sequencer.mem-master-port::system.ruby.l1_cntrl2.sequencer.pio-slave-port            4                       # Cumulative packet size per connected master and slave (bytes)
system.iobus.pkt_size_system.ruby.l1_cntrl1.sequencer.mem-master-port::total          566                       # Cumulative packet size per connected master and slave (bytes)
system.iobus.pkt_size_system.ruby.l1_cntrl2.sequencer.mem-master-port::system.pc.south_bridge.ide.pio            6                       # Cumulative packet size per connected master and slave (bytes)
system.iobus.pkt_size_system.ruby.l1_cntrl2.sequencer.mem-master-port::system.ruby.l1_cntrl0.sequencer.pio-slave-port           12                       # Cumulative packet size per connected master and slave (bytes)
system.iobus.pkt_size_system.ruby.l1_cntrl2.sequencer.mem-master-port::system.ruby.l1_cntrl1.sequencer.pio-slave-port            8                       # Cumulative packet size per connected master and slave (bytes)
system.iobus.pkt_size_system.ruby.l1_cntrl2.sequencer.mem-master-port::system.ruby.l1_cntrl2.sequencer.pio-slave-port          532                       # Cumulative packet size per connected master and slave (bytes)
system.iobus.pkt_size_system.ruby.l1_cntrl2.sequencer.mem-master-port::system.ruby.l1_cntrl3.sequencer.pio-slave-port            4                       # Cumulative packet size per connected master and slave (bytes)
system.iobus.pkt_size_system.ruby.l1_cntrl2.sequencer.mem-master-port::total          562                       # Cumulative packet size per connected master and slave (bytes)
system.iobus.pkt_size_system.ruby.l1_cntrl3.sequencer.mem-master-port::system.pc.south_bridge.io_apic.pio           12                       # Cumulative packet size per connected master and slave (bytes)
system.iobus.pkt_size_system.ruby.l1_cntrl3.sequencer.mem-master-port::system.pc.com_1.pio           87                       # Cumulative packet size per connected master and slave (bytes)
system.iobus.pkt_size_system.ruby.l1_cntrl3.sequencer.mem-master-port::system.ruby.l1_cntrl0.sequencer.pio-slave-port            4                       # Cumulative packet size per connected master and slave (bytes)
system.iobus.pkt_size_system.ruby.l1_cntrl3.sequencer.mem-master-port::system.ruby.l1_cntrl3.sequencer.pio-slave-port          484                       # Cumulative packet size per connected master and slave (bytes)
system.iobus.pkt_size_system.ruby.l1_cntrl3.sequencer.mem-master-port::total          587                       # Cumulative packet size per connected master and slave (bytes)
system.iobus.pkt_size::total                     2296                       # Cumulative packet size per connected master and slave (bytes)
system.iobus.reqLayer2.occupancy                80000                       # Layer occupancy (ticks)
system.iobus.reqLayer2.utilization                0.0                       # Layer utilization (%)
system.iobus.reqLayer8.occupancy                19997                       # Layer occupancy (ticks)
system.iobus.reqLayer8.utilization                0.0                       # Layer utilization (%)
system.iobus.reqLayer12.occupancy              113000                       # Layer occupancy (ticks)
system.iobus.reqLayer12.utilization               0.0                       # Layer utilization (%)
system.iobus.reqLayer17.occupancy              331999                       # Layer occupancy (ticks)
system.iobus.reqLayer17.utilization               0.0                       # Layer utilization (%)
system.iobus.reqLayer18.occupancy              323997                       # Layer occupancy (ticks)
system.iobus.reqLayer18.utilization               0.0                       # Layer utilization (%)
system.iobus.reqLayer19.occupancy              294994                       # Layer occupancy (ticks)
system.iobus.reqLayer19.utilization               0.0                       # Layer utilization (%)
system.iobus.reqLayer20.occupancy              306000                       # Layer occupancy (ticks)
system.iobus.reqLayer20.utilization               0.0                       # Layer utilization (%)
system.iobus.respLayer0.occupancy                8498                       # Layer occupancy (ticks)
system.iobus.respLayer0.utilization               0.0                       # Layer utilization (%)
system.iobus.respLayer2.occupancy              213000                       # Layer occupancy (ticks)
system.iobus.respLayer2.utilization               0.0                       # Layer utilization (%)
system.iobus.respLayer4.occupancy              247500                       # Layer occupancy (ticks)
system.iobus.respLayer4.utilization               0.0                       # Layer utilization (%)
system.iobus.respLayer6.occupancy              220500                       # Layer occupancy (ticks)
system.iobus.respLayer6.utilization               0.0                       # Layer utilization (%)
system.iobus.respLayer8.occupancy              339500                       # Layer occupancy (ticks)
system.iobus.respLayer8.utilization               0.0                       # Layer utilization (%)
system.pc.south_bridge.ide.disks.dma_read_full_pages            0                       # Number of full page size DMA reads (not PRD).
system.pc.south_bridge.ide.disks.dma_read_bytes            0                       # Number of bytes transfered via DMA reads (not PRD).
system.pc.south_bridge.ide.disks.dma_read_txs            0                       # Number of DMA read transactions (not PRD).
system.pc.south_bridge.ide.disks.dma_write_full_pages           33                       # Number of full page size DMA writes.
system.pc.south_bridge.ide.disks.dma_write_bytes       135168                       # Number of bytes transfered via DMA writes.
system.pc.south_bridge.ide.disks.dma_write_txs           33                       # Number of DMA write transactions.
system.ruby.clk_domain.clock                      500                       # Clock period in ticks
system.ruby.delayHist::bucket_size                  4                       # delay histogram for all message
system.ruby.delayHist::max_bucket                  39                       # delay histogram for all message
system.ruby.delayHist::samples                1157035                       # delay histogram for all message
system.ruby.delayHist::mean                  0.324818                       # delay histogram for all message
system.ruby.delayHist::stdev                 1.583715                       # delay histogram for all message
system.ruby.delayHist                    |     1110437     95.97%     95.97% |         369      0.03%     96.00% |       46080      3.98%     99.99% |          41      0.00%     99.99% |          78      0.01%    100.00% |           3      0.00%    100.00% |          17      0.00%    100.00% |           4      0.00%    100.00% |           6      0.00%    100.00% |           0      0.00%    100.00% # delay histogram for all message
system.ruby.delayHist::total                  1157035                       # delay histogram for all message
system.ruby.outstanding_req_hist_seqr::bucket_size            1                      
system.ruby.outstanding_req_hist_seqr::max_bucket            9                      
system.ruby.outstanding_req_hist_seqr::samples    462009372                      
system.ruby.outstanding_req_hist_seqr::mean     1.000000                      
system.ruby.outstanding_req_hist_seqr::gmean     1.000000                      
system.ruby.outstanding_req_hist_seqr::stdev     0.000651                      
system.ruby.outstanding_req_hist_seqr    |           0      0.00%      0.00% |   462009176    100.00%    100.00% |         196      0.00%    100.00% |           0      0.00%    100.00% |           0      0.00%    100.00% |           0      0.00%    100.00% |           0      0.00%    100.00% |           0      0.00%    100.00% |           0      0.00%    100.00% |           0      0.00%    100.00%
system.ruby.outstanding_req_hist_seqr::total    462009372                      
system.ruby.latency_hist_seqr::bucket_size          128                      
system.ruby.latency_hist_seqr::max_bucket         1279                      
system.ruby.latency_hist_seqr::samples      462009372                      
system.ruby.latency_hist_seqr::mean          1.011068                      
system.ruby.latency_hist_seqr::gmean         1.001627                      
system.ruby.latency_hist_seqr::stdev         0.679552                      
system.ruby.latency_hist_seqr            |   462006535    100.00%    100.00% |        2717      0.00%    100.00% |          25      0.00%    100.00% |          21      0.00%    100.00% |          54      0.00%    100.00% |          20      0.00%    100.00% |           0      0.00%    100.00% |           0      0.00%    100.00% |           0      0.00%    100.00% |           0      0.00%    100.00%
system.ruby.latency_hist_seqr::total        462009372                      
system.ruby.hit_latency_hist_seqr::bucket_size            1                      
system.ruby.hit_latency_hist_seqr::max_bucket            9                      
system.ruby.hit_latency_hist_seqr::samples    461753078                      
system.ruby.hit_latency_hist_seqr::mean             1                      
system.ruby.hit_latency_hist_seqr::gmean            1                      
system.ruby.hit_latency_hist_seqr        |           0      0.00%      0.00% |   461753078    100.00%    100.00% |           0      0.00%    100.00% |           0      0.00%    100.00% |           0      0.00%    100.00% |           0      0.00%    100.00% |           0      0.00%    100.00% |           0      0.00%    100.00% |           0      0.00%    100.00% |           0      0.00%    100.00%
system.ruby.hit_latency_hist_seqr::total    461753078                      
system.ruby.miss_latency_hist_seqr::bucket_size          128                      
system.ruby.miss_latency_hist_seqr::max_bucket         1279                      
system.ruby.miss_latency_hist_seqr::samples       256294                      
system.ruby.miss_latency_hist_seqr::mean    20.952476                      
[...]
system.ruby.Directory_Controller.MI.Memory_Ack        13554      0.00%      0.00%
system.ruby.Directory_Controller.M_DRD.Data            4      0.00%      0.00%
system.ruby.Directory_Controller.M_DRDI.Memory_Ack            4      0.00%      0.00%
system.ruby.DMA_Controller.ReadRequest   |           7    100.00%    100.00% |           0      0.00%    100.00%
system.ruby.DMA_Controller.ReadRequest::total            7                      
system.ruby.DMA_Controller.WriteRequest  |        2240    100.00%    100.00% |           0      0.00%    100.00%
system.ruby.DMA_Controller.WriteRequest::total         2240                      
system.ruby.DMA_Controller.Data          |           7    100.00%    100.00% |           0      0.00%    100.00%
system.ruby.DMA_Controller.Data::total              7                      
system.ruby.DMA_Controller.Ack           |        2240    100.00%    100.00% |           0      0.00%    100.00%
system.ruby.DMA_Controller.Ack::total            2240                      
system.ruby.DMA_Controller.READY.ReadRequest |           7    100.00%    100.00% |           0      0.00%    100.00%
system.ruby.DMA_Controller.READY.ReadRequest::total            7                      
system.ruby.DMA_Controller.READY.WriteRequest |        2240    100.00%    100.00% |           0      0.00%    100.00%
system.ruby.DMA_Controller.READY.WriteRequest::total         2240                      
system.ruby.DMA_Controller.BUSY_RD.Data  |           7    100.00%    100.00% |           0      0.00%    100.00%
system.ruby.DMA_Controller.BUSY_RD.Data::total            7                      
system.ruby.DMA_Controller.BUSY_WR.Ack   |        2240    100.00%    100.00% |           0      0.00%    100.00%
system.ruby.DMA_Controller.BUSY_WR.Ack::total         2240                      
system.ruby.L1Cache_Controller.Load      |      411691      0.61%      0.61% |      716879      1.05%      1.66% |    66480041     97.80%     99.46% |      364438      0.54%    100.00%
system.ruby.L1Cache_Controller.Load::total     67973049                      
system.ruby.L1Cache_Controller.Ifetch    |     1985647      0.49%      0.49% |     4051852      1.01%      1.50% |   395339530     98.07%     99.56% |     1756230      0.44%    100.00%
system.ruby.L1Cache_Controller.Ifetch::total    403133259                      
system.ruby.L1Cache_Controller.Store     |      312327      1.25%      1.25% |      571250      2.29%      3.54% |    23787051     95.36%     98.91% |      273074      1.09%    100.00%
system.ruby.L1Cache_Controller.Store::total     24943702                      
system.ruby.L1Cache_Controller.Inv       |        5226     24.59%     24.59% |        5528     26.01%     50.60% |        6554     30.84%     81.43% |        3947     18.57%    100.00%
system.ruby.L1Cache_Controller.Inv::total        21255                      
system.ruby.L1Cache_Controller.L1_Replacement |       43714      8.87%      8.87% |       67392     13.67%     22.54% |      345624     70.13%     92.67% |       36137      7.33%    100.00%
system.ruby.L1Cache_Controller.L1_Replacement::total       492867                      
system.ruby.L1Cache_Controller.Fwd_GETX  |         801     25.77%     25.77% |         711     22.88%     48.65% |        1238     39.83%     88.48% |         358     11.52%    100.00%
system.ruby.L1Cache_Controller.Fwd_GETX::total         3108                      
system.ruby.L1Cache_Controller.Fwd_GETS  |        2549     30.41%     30.41% |        1483     17.69%     48.10% |        2621     31.27%     79.36% |        1730     20.64%    100.00%
system.ruby.L1Cache_Controller.Fwd_GETS::total         8383                      
system.ruby.L1Cache_Controller.Data      |         207     21.93%     21.93% |         152     16.10%     38.03% |         482     51.06%     89.09% |         103     10.91%    100.00%
system.ruby.L1Cache_Controller.Data::total          944                      
system.ruby.L1Cache_Controller.Data_Exclusive |        9763      4.54%      4.54% |       20065      9.33%     13.87% |      174791     81.25%     95.12% |       10502      4.88%    100.00%
system.ruby.L1Cache_Controller.Data_Exclusive::total       215121                      
system.ruby.L1Cache_Controller.DataS_fromL1 |        2171     25.90%     25.90% |        1859     22.18%     48.07% |        2085     24.87%     72.95% |        2268     27.05%    100.00%
system.ruby.L1Cache_Controller.DataS_fromL1::total         8383                      
system.ruby.L1Cache_Controller.Data_all_Acks |       33198     12.08%     12.08% |       47191     17.17%     29.25% |      169041     61.50%     90.74% |       25450      9.26%    100.00%
system.ruby.L1Cache_Controller.Data_all_Acks::total       274880                      
system.ruby.L1Cache_Controller.Ack       |        3648     36.92%     36.92% |        2215     22.42%     59.34% |        2256     22.83%     82.17% |        1762     17.83%    100.00%
system.ruby.L1Cache_Controller.Ack::total         9881                      
system.ruby.L1Cache_Controller.Ack_all   |        2188     29.58%     29.58% |        1760     23.79%     53.37% |        2027     27.40%     80.77% |        1423     19.23%    100.00%
system.ruby.L1Cache_Controller.Ack_all::total         7398                      
system.ruby.L1Cache_Controller.WB_Ack    |       17124      6.03%      6.03% |       29707     10.46%     16.49% |      219859     77.41%     93.90% |       17322      6.10%    100.00%
system.ruby.L1Cache_Controller.WB_Ack::total       284012                      
system.ruby.L1Cache_Controller.NP.Load   |       12526      5.37%      5.37% |       24107     10.34%     15.72% |      183270     78.64%     94.36% |       13152      5.64%    100.00%
system.ruby.L1Cache_Controller.NP.Load::total       233055                      
system.ruby.L1Cache_Controller.NP.Ifetch |       22507     12.11%     12.11% |       32797     17.65%     29.77% |      115477     62.16%     91.92% |       15004      8.08%    100.00%
system.ruby.L1Cache_Controller.NP.Ifetch::total       185785                      
system.ruby.L1Cache_Controller.NP.Store  |        8681     11.64%     11.64% |       10552     14.15%     25.79% |       46878     62.87%     88.67% |        8450     11.33%    100.00%
system.ruby.L1Cache_Controller.NP.Store::total        74561                      
system.ruby.L1Cache_Controller.NP.Inv    |        2526     24.95%     24.95% |        2773     27.39%     52.34% |        3874     38.26%     90.60% |         952      9.40%    100.00%
system.ruby.L1Cache_Controller.NP.Inv::total        10125                      
system.ruby.L1Cache_Controller.I.Load    |        1474     27.21%     27.21% |        1700     31.38%     58.58% |         637     11.76%     70.34% |        1607     29.66%    100.00%
system.ruby.L1Cache_Controller.I.Load::total         5418                      
system.ruby.L1Cache_Controller.I.Ifetch  |           9     20.93%     20.93% |          14     32.56%     53.49% |          12     27.91%     81.40% |           8     18.60%    100.00%
system.ruby.L1Cache_Controller.I.Ifetch::total           43                      
system.ruby.L1Cache_Controller.I.Store   |         142     30.47%     30.47% |          97     20.82%     51.29% |         125     26.82%     78.11% |         102     21.89%    100.00%
system.ruby.L1Cache_Controller.I.Store::total          466                      
system.ruby.L1Cache_Controller.I.L1_Replacement |        1676     21.34%     21.34% |        1584     20.17%     41.52% |        2727     34.73%     76.25% |        1865     23.75%    100.00%
system.ruby.L1Cache_Controller.I.L1_Replacement::total         7852                      
system.ruby.L1Cache_Controller.S.Load    |       57069      0.49%      0.49% |       82042      0.71%      1.20% |    11359236     98.36%     99.56% |       50568      0.44%    100.00%
system.ruby.L1Cache_Controller.S.Load::total     11548915                      
system.ruby.L1Cache_Controller.S.Ifetch  |     1963131      0.49%      0.49% |     4019039      1.00%      1.48% |   395224041     98.08%     99.57% |     1741218      0.43%    100.00%
system.ruby.L1Cache_Controller.S.Ifetch::total    402947429                      
system.ruby.L1Cache_Controller.S.Store   |        1981     30.69%     30.69% |        1608     24.91%     55.61% |        1545     23.94%     79.55% |        1320     20.45%    100.00%
system.ruby.L1Cache_Controller.S.Store::total         6454                      
system.ruby.L1Cache_Controller.S.Inv     |        2393     23.74%     23.74% |        2475     24.55%     48.28% |        2484     24.64%     72.92% |        2730     27.08%    100.00%
system.ruby.L1Cache_Controller.S.Inv::total        10082                      
system.ruby.L1Cache_Controller.S.L1_Replacement |       24914     12.39%     12.39% |       36101     17.96%     30.36% |      123038     61.21%     91.57% |       16950      8.43%    100.00%
system.ruby.L1Cache_Controller.S.L1_Replacement::total       201003                      
system.ruby.L1Cache_Controller.E.Load    |       87555      0.31%      0.31% |      172216      0.62%      0.93% |    27459111     98.76%     99.70% |       84245      0.30%    100.00%
system.ruby.L1Cache_Controller.E.Load::total     27803127                      
system.ruby.L1Cache_Controller.E.Store   |        2078     10.48%     10.48% |        7981     40.25%     50.73% |        7118     35.90%     86.62% |        2653     13.38%    100.00%
system.ruby.L1Cache_Controller.E.Store::total        19830                      
system.ruby.L1Cache_Controller.E.Inv     |          93     29.52%     29.52% |          98     31.11%     60.63% |          49     15.56%     76.19% |          75     23.81%    100.00%
system.ruby.L1Cache_Controller.E.Inv::total          315                      
system.ruby.L1Cache_Controller.E.L1_Replacement |        6702      3.51%      3.51% |       11172      5.86%      9.37% |      166066     87.05%     96.42% |        6822      3.58%    100.00%
system.ruby.L1Cache_Controller.E.L1_Replacement::total       190762                      
system.ruby.L1Cache_Controller.E.Fwd_GETX |         162     12.71%     12.71% |         375     29.41%     42.12% |         704     55.22%     97.33% |          34      2.67%    100.00%
system.ruby.L1Cache_Controller.E.Fwd_GETX::total         1275                      
system.ruby.L1Cache_Controller.E.Fwd_GETS |         658     23.70%     23.70% |         436     15.71%     39.41% |        1134     40.85%     80.26% |         548     19.74%    100.00%
system.ruby.L1Cache_Controller.E.Fwd_GETS::total         2776                      
system.ruby.L1Cache_Controller.M.Load    |      253067      0.89%      0.89% |      436814      1.54%      2.43% |    27477787     96.81%     99.24% |      214866      0.76%    100.00%
system.ruby.L1Cache_Controller.M.Load::total     28382534                      
system.ruby.L1Cache_Controller.M.Store   |      299445      1.21%      1.21% |      551012      2.22%      3.42% |    23731385     95.53%     98.95% |      260549      1.05%    100.00%
system.ruby.L1Cache_Controller.M.Store::total     24842391                      
system.ruby.L1Cache_Controller.M.Inv     |         214     29.20%     29.20% |         182     24.83%     54.02% |         147     20.05%     74.08% |         190     25.92%    100.00%
system.ruby.L1Cache_Controller.M.Inv::total          733                      
system.ruby.L1Cache_Controller.M.L1_Replacement |       10422     11.18%     11.18% |       18535     19.88%     31.05% |       53793     57.69%     88.74% |       10500     11.26%    100.00%
system.ruby.L1Cache_Controller.M.L1_Replacement::total        93250                      
system.ruby.L1Cache_Controller.M.Fwd_GETX |         639     34.86%     34.86% |         336     18.33%     53.19% |         534     29.13%     82.32% |         324     17.68%    100.00%
system.ruby.L1Cache_Controller.M.Fwd_GETX::total         1833                      
system.ruby.L1Cache_Controller.M.Fwd_GETS |        1891     33.73%     33.73% |        1047     18.67%     52.40% |        1487     26.52%     78.92% |        1182     21.08%    100.00%
system.ruby.L1Cache_Controller.M.Fwd_GETS::total         5607                      
system.ruby.L1Cache_Controller.IS.Data_Exclusive |        9763      4.54%      4.54% |       20065      9.33%     13.87% |      174791     81.25%     95.12% |       10502      4.88%    100.00%
system.ruby.L1Cache_Controller.IS.Data_Exclusive::total       215121                      
system.ruby.L1Cache_Controller.IS.DataS_fromL1 |        2171     25.90%     25.90% |        1859     22.18%     48.07% |        2085     24.87%     72.95% |        2268     27.05%    100.00%
system.ruby.L1Cache_Controller.IS.DataS_fromL1::total         8383                      
system.ruby.L1Cache_Controller.IS.Data_all_Acks |       24582     12.24%     12.24% |       36694     18.27%     30.52% |      122520     61.02%     91.53% |       17001      8.47%    100.00%
system.ruby.L1Cache_Controller.IS.Data_all_Acks::total       200797                      
system.ruby.L1Cache_Controller.IM.Data   |         207     21.93%     21.93% |         152     16.10%     38.03% |         482     51.06%     89.09% |         103     10.91%    100.00%
system.ruby.L1Cache_Controller.IM.Data::total          944                      
system.ruby.L1Cache_Controller.IM.Data_all_Acks |        8616     11.63%     11.63% |       10497     14.17%     25.80% |       46521     62.80%     88.60% |        8449     11.40%    100.00%
system.ruby.L1Cache_Controller.IM.Data_all_Acks::total        74083                      
system.ruby.L1Cache_Controller.SM.Ack    |        3648     36.92%     36.92% |        2215     22.42%     59.34% |        2256     22.83%     82.17% |        1762     17.83%    100.00%
system.ruby.L1Cache_Controller.SM.Ack::total         9881                      
system.ruby.L1Cache_Controller.SM.Ack_all |        2188     29.58%     29.58% |        1760     23.79%     53.37% |        2027     27.40%     80.77% |        1423     19.23%    100.00%
system.ruby.L1Cache_Controller.SM.Ack_all::total         7398                      
system.ruby.L1Cache_Controller.M_I.Ifetch |           0      0.00%      0.00% |           2    100.00%    100.00% |           0      0.00%    100.00% |           0      0.00%    100.00%
system.ruby.L1Cache_Controller.M_I.Ifetch::total            2                      
system.ruby.L1Cache_Controller.M_I.WB_Ack |       17124      6.03%      6.03% |       29707     10.46%     16.49% |      219859     77.41%     93.90% |       17322      6.10%    100.00%
system.ruby.L1Cache_Controller.M_I.WB_Ack::total       284012                      
system.ruby.L2Cache_Controller.L1_GET_INSTR       185828      0.00%      0.00%
system.ruby.L2Cache_Controller.L1_GETS         238521      0.00%      0.00%
system.ruby.L2Cache_Controller.L1_GETX          75032      0.00%      0.00%
system.ruby.L2Cache_Controller.L1_UPGRADE         6454      0.00%      0.00%
system.ruby.L2Cache_Controller.L1_PUTX         284012      0.00%      0.00%
system.ruby.L2Cache_Controller.L2_Replacement        13123      0.00%      0.00%
system.ruby.L2Cache_Controller.L2_Replacement_clean        11743      0.00%      0.00%
system.ruby.L2Cache_Controller.Mem_Data         42162      0.00%      0.00%
system.ruby.L2Cache_Controller.Mem_Ack          24870      0.00%      0.00%
system.ruby.L2Cache_Controller.WB_Data           6340      0.00%      0.00%
system.ruby.L2Cache_Controller.WB_Data_clean         2776      0.00%      0.00%
system.ruby.L2Cache_Controller.Ack               4322      0.00%      0.00%
system.ruby.L2Cache_Controller.Ack_all           5375      0.00%      0.00%
system.ruby.L2Cache_Controller.Unblock           8383      0.00%      0.00%
system.ruby.L2Cache_Controller.Exclusive_Unblock       296602      0.00%      0.00%
system.ruby.L2Cache_Controller.MEM_Inv              8      0.00%      0.00%
system.ruby.L2Cache_Controller.NP.L1_GET_INSTR         6709      0.00%      0.00%
system.ruby.L2Cache_Controller.NP.L1_GETS        18826      0.00%      0.00%
system.ruby.L2Cache_Controller.NP.L1_GETX        16627      0.00%      0.00%
system.ruby.L2Cache_Controller.SS.L1_GET_INSTR       179108      0.00%      0.00%
system.ruby.L2Cache_Controller.SS.L1_GETS        14959      0.00%      0.00%
system.ruby.L2Cache_Controller.SS.L1_GETX          944      0.00%      0.00%
system.ruby.L2Cache_Controller.SS.L1_UPGRADE         6454      0.00%      0.00%
system.ruby.L2Cache_Controller.SS.L2_Replacement          249      0.00%      0.00%
system.ruby.L2Cache_Controller.SS.L2_Replacement_clean         4811      0.00%      0.00%
system.ruby.L2Cache_Controller.M.L1_GET_INSTR           11      0.00%      0.00%
system.ruby.L2Cache_Controller.M.L1_GETS       196300      0.00%      0.00%
system.ruby.L2Cache_Controller.M.L1_GETX        54348      0.00%      0.00%
system.ruby.L2Cache_Controller.M.L2_Replacement        12492      0.00%      0.00%
system.ruby.L2Cache_Controller.M.L2_Replacement_clean         6270      0.00%      0.00%
system.ruby.L2Cache_Controller.MT.L1_GETS         8383      0.00%      0.00%
system.ruby.L2Cache_Controller.MT.L1_GETX         3108      0.00%      0.00%
system.ruby.L2Cache_Controller.MT.L1_PUTX       284012      0.00%      0.00%
system.ruby.L2Cache_Controller.MT.L2_Replacement          382      0.00%      0.00%
system.ruby.L2Cache_Controller.MT.L2_Replacement_clean          662      0.00%      0.00%
system.ruby.L2Cache_Controller.MT.MEM_Inv            4      0.00%      0.00%
system.ruby.L2Cache_Controller.M_I.L1_GETS            2      0.00%      0.00%
system.ruby.L2Cache_Controller.M_I.Mem_Ack        24870      0.00%      0.00%
system.ruby.L2Cache_Controller.MT_I.WB_Data          302      0.00%      0.00%
system.ruby.L2Cache_Controller.MT_I.Ack_all           84      0.00%      0.00%
system.ruby.L2Cache_Controller.MT_I.MEM_Inv            4      0.00%      0.00%
system.ruby.L2Cache_Controller.MCT_I.WB_Data          431      0.00%      0.00%
system.ruby.L2Cache_Controller.MCT_I.Ack_all          231      0.00%      0.00%
system.ruby.L2Cache_Controller.I_I.Ack           4056      0.00%      0.00%
system.ruby.L2Cache_Controller.I_I.Ack_all         4811      0.00%      0.00%
system.ruby.L2Cache_Controller.S_I.Ack            266      0.00%      0.00%
system.ruby.L2Cache_Controller.S_I.Ack_all          249      0.00%      0.00%
system.ruby.L2Cache_Controller.ISS.L1_GETS            5      0.00%      0.00%
system.ruby.L2Cache_Controller.ISS.Mem_Data        18821      0.00%      0.00%
system.ruby.L2Cache_Controller.IS.Mem_Data         6714      0.00%      0.00%
system.ruby.L2Cache_Controller.IM.Mem_Data        16627      0.00%      0.00%
system.ruby.L2Cache_Controller.SS_MB.L1_GETS           32      0.00%      0.00%
system.ruby.L2Cache_Controller.SS_MB.Exclusive_Unblock         7398      0.00%      0.00%
system.ruby.L2Cache_Controller.MT_MB.L1_GETS           12      0.00%      0.00%
system.ruby.L2Cache_Controller.MT_MB.L1_GETX            3      0.00%      0.00%
system.ruby.L2Cache_Controller.MT_MB.Exclusive_Unblock       289204      0.00%      0.00%
system.ruby.L2Cache_Controller.MT_IIB.L1_GETS            2      0.00%      0.00%
system.ruby.L2Cache_Controller.MT_IIB.L1_GETX            2      0.00%      0.00%
system.ruby.L2Cache_Controller.MT_IIB.WB_Data         5601      0.00%      0.00%
system.ruby.L2Cache_Controller.MT_IIB.WB_Data_clean         2768      0.00%      0.00%
system.ruby.L2Cache_Controller.MT_IIB.Unblock           14      0.00%      0.00%
system.ruby.L2Cache_Controller.MT_IB.WB_Data            6      0.00%      0.00%
system.ruby.L2Cache_Controller.MT_IB.WB_Data_clean            8      0.00%      0.00%
system.ruby.L2Cache_Controller.MT_SB.Unblock         8369      0.00%      0.00%

---------- End Simulation Statistics   ----------
