
---------- Begin Simulation Statistics ----------
sim_seconds                                  2.338396                       # Number of seconds simulated
sim_ticks                                2338395834000                       # Number of ticks simulated
final_tick                               54899641787001                       # Number of ticks from beginning of simulation (restored from checkpoints and never reset)
sim_freq                                 1000000000000                       # Frequency of simulated ticks
host_inst_rate                                 131159                       # Simulator instruction rate (inst/s)
host_op_rate                                   237743                       # Simulator op (including micro ops) rate (op/s)
host_tick_rate                              233638950                       # Simulator tick rate (ticks/s)
host_mem_usage                                1846452                       # Number of bytes of host memory used
host_seconds                                 10008.59                       # Real time elapsed on the host
sim_insts                                  1312720232                       # Number of instructions simulated
sim_ops                                    2379467489                       # Number of ops (including micro ops) simulated
system.voltage_domain.voltage                       1                       # Voltage in Volts
system.clk_domain.clock                          1000                       # Clock period in ticks
system.mem_ctrls.bytes_read::ruby.dir_cntrl0     84194304                       # Number of bytes read from this memory
system.mem_ctrls.bytes_read::total           84194304                       # Number of bytes read from this memory
system.mem_ctrls.bytes_written::ruby.dir_cntrl0     47798528                       # Number of bytes written to this memory
system.mem_ctrls.bytes_written::total        47798528                       # Number of bytes written to this memory
system.mem_ctrls.num_reads::ruby.dir_cntrl0      1315536                       # Number of read requests responded to by this memory
system.mem_ctrls.num_reads::total             1315536                       # Number of read requests responded to by this memory
system.mem_ctrls.num_writes::ruby.dir_cntrl0       746852                       # Number of write requests responded to by this memory
system.mem_ctrls.num_writes::total             746852                       # Number of write requests responded to by this memory
system.mem_ctrls.bw_read::ruby.dir_cntrl0     36005155                       # Total read bandwidth from this memory (bytes/s)
system.mem_ctrls.bw_read::total              36005155                       # Total read bandwidth from this memory (bytes/s)
system.mem_ctrls.bw_write::ruby.dir_cntrl0     20440734                       # Write bandwidth from this memory (bytes/s)
system.mem_ctrls.bw_write::total             20440734                       # Write bandwidth from this memory (bytes/s)
system.mem_ctrls.bw_total::ruby.dir_cntrl0     56445889                       # Total bandwidth to/from this memory (bytes/s)
system.mem_ctrls.bw_total::total             56445889                       # Total bandwidth to/from this memory (bytes/s)
system.mem_ctrls.readReqs                     1315536                       # Number of read requests accepted
system.mem_ctrls.writeReqs                     746852                       # Number of write requests accepted
system.mem_ctrls.readBursts                   1315536                       # Number of DRAM read bursts, including those serviced by the write queue
system.mem_ctrls.writeBursts                   746852                       # Number of DRAM write bursts, including those merged in the write queue
system.mem_ctrls.bytesReadDRAM               84057792                       # Total number of bytes read from DRAM
system.mem_ctrls.bytesReadWrQ                  136512                       # Total number of bytes read from write queue
system.mem_ctrls.bytesWritten                47798208                       # Total number of bytes written to DRAM
system.mem_ctrls.bytesReadSys                84194304                       # Total read bytes from the system interface side
system.mem_ctrls.bytesWrittenSys             47798528                       # Total written bytes from the system interface side
system.mem_ctrls.servicedByWrQ                   2133                       # Number of DRAM read bursts serviced by the write queue
system.mem_ctrls.mergedWrBursts                     2                       # Number of DRAM write bursts merged with an existing one
system.mem_ctrls.neitherReadNorWriteReqs            0                       # Number of requests that are neither read nor write
system.mem_ctrls.perBankRdBursts::0             82393                       # Per bank write bursts
system.mem_ctrls.perBankRdBursts::1             81256                       # Per bank write bursts
system.mem_ctrls.perBankRdBursts::2             80664                       # Per bank write bursts
system.mem_ctrls.perBankRdBursts::3             79389                       # Per bank write bursts
system.mem_ctrls.perBankRdBursts::4             82835                       # Per bank write bursts
system.mem_ctrls.perBankRdBursts::5             85187                       # Per bank write bursts
system.mem_ctrls.perBankRdBursts::6             83038                       # Per bank write bursts
system.mem_ctrls.perBankRdBursts::7             81776                       # Per bank write bursts
system.mem_ctrls.perBankRdBursts::8             84224                       # Per bank write bursts
system.mem_ctrls.perBankRdBursts::9             82800                       # Per bank write bursts
system.mem_ctrls.perBankRdBursts::10            78487                       # Per bank write bursts
system.mem_ctrls.perBankRdBursts::11            83003                       # Per bank write bursts
system.mem_ctrls.perBankRdBursts::12            82624                       # Per bank write bursts
system.mem_ctrls.perBankRdBursts::13            79794                       # Per bank write bursts
system.mem_ctrls.perBankRdBursts::14            82991                       # Per bank write bursts
system.mem_ctrls.perBankRdBursts::15            82942                       # Per bank write bursts
system.mem_ctrls.perBankWrBursts::0             46794                       # Per bank write bursts
system.mem_ctrls.perBankWrBursts::1             45441                       # Per bank write bursts
system.mem_ctrls.perBankWrBursts::2             45889                       # Per bank write bursts
system.mem_ctrls.perBankWrBursts::3             45640                       # Per bank write bursts
system.mem_ctrls.perBankWrBursts::4             46891                       # Per bank write bursts
system.mem_ctrls.perBankWrBursts::5             48346                       # Per bank write bursts
system.mem_ctrls.perBankWrBursts::6             48135                       # Per bank write bursts
system.mem_ctrls.perBankWrBursts::7             46706                       # Per bank write bursts
system.mem_ctrls.perBankWrBursts::8             47813                       # Per bank write bursts
system.mem_ctrls.perBankWrBursts::9             47543                       # Per bank write bursts
system.mem_ctrls.perBankWrBursts::10            45347                       # Per bank write bursts
system.mem_ctrls.perBankWrBursts::11            46576                       # Per bank write bursts
system.mem_ctrls.perBankWrBursts::12            47137                       # Per bank write bursts
system.mem_ctrls.perBankWrBursts::13            45441                       # Per bank write bursts
system.mem_ctrls.perBankWrBursts::14            46286                       # Per bank write bursts
system.mem_ctrls.perBankWrBursts::15            46862                       # Per bank write bursts
system.mem_ctrls.numRdRetry                         0                       # Number of times read queue was full causing retry
system.mem_ctrls.numWrRetry                         0                       # Number of times write queue was full causing retry
system.mem_ctrls.totGap                  2338395755500                       # Total gap between requests
system.mem_ctrls.readPktSize::0                     0                       # Read request sizes (log2)
system.mem_ctrls.readPktSize::1                     0                       # Read request sizes (log2)
system.mem_ctrls.readPktSize::2                     0                       # Read request sizes (log2)
system.mem_ctrls.readPktSize::3                     0                       # Read request sizes (log2)
system.mem_ctrls.readPktSize::4                     0                       # Read request sizes (log2)
system.mem_ctrls.readPktSize::5                     0                       # Read request sizes (log2)
system.mem_ctrls.readPktSize::6               1315536                       # Read request sizes (log2)
system.mem_ctrls.writePktSize::0                    0                       # Write request sizes (log2)
system.mem_ctrls.writePktSize::1                    0                       # Write request sizes (log2)
system.mem_ctrls.writePktSize::2                    0                       # Write request sizes (log2)
system.mem_ctrls.writePktSize::3                    0                       # Write request sizes (log2)
system.mem_ctrls.writePktSize::4                    0                       # Write request sizes (log2)
system.mem_ctrls.writePktSize::5                    0                       # Write request sizes (log2)
system.mem_ctrls.writePktSize::6               746852                       # Write request sizes (log2)
system.mem_ctrls.rdQLenPdf::0                 1312363                       # What read queue length does an incoming req see
system.mem_ctrls.rdQLenPdf::1                    1040                       # What read queue length does an incoming req see
system.mem_ctrls.rdQLenPdf::2                       0                       # What read queue length does an incoming req see
system.mem_ctrls.rdQLenPdf::3                       0                       # What read queue length does an incoming req see
system.mem_ctrls.rdQLenPdf::4                       0                       # What read queue length does an incoming req see
system.mem_ctrls.rdQLenPdf::5                       0                       # What read queue length does an incoming req see
system.mem_ctrls.rdQLenPdf::6                       0                       # What read queue length does an incoming req see
system.mem_ctrls.rdQLenPdf::7                       0                       # What read queue length does an incoming req see
system.mem_ctrls.rdQLenPdf::8                       0                       # What read queue length does an incoming req see
system.mem_ctrls.rdQLenPdf::9                       0                       # What read queue length does an incoming req see
system.mem_ctrls.rdQLenPdf::10                      0                       # What read queue length does an incoming req see
system.mem_ctrls.rdQLenPdf::11                      0                       # What read queue length does an incoming req see
system.mem_ctrls.rdQLenPdf::12                      0                       # What read queue length does an incoming req see
system.mem_ctrls.rdQLenPdf::13                      0                       # What read queue length does an incoming req see
system.mem_ctrls.rdQLenPdf::14                      0                       # What read queue length does an incoming req see
system.mem_ctrls.rdQLenPdf::15                      0                       # What read queue length does an incoming req see
system.mem_ctrls.rdQLenPdf::16                      0                       # What read queue length does an incoming req see
system.mem_ctrls.rdQLenPdf::17                      0                       # What read queue length does an incoming req see
system.mem_ctrls.rdQLenPdf::18                      0                       # What read queue length does an incoming req see
system.mem_ctrls.rdQLenPdf::19                      0                       # What read queue length does an incoming req see
system.mem_ctrls.rdQLenPdf::20                      0                       # What read queue length does an incoming req see
system.mem_ctrls.rdQLenPdf::21                      0                       # What read queue length does an incoming req see
system.mem_ctrls.rdQLenPdf::22                      0                       # What read queue length does an incoming req see
system.mem_ctrls.rdQLenPdf::23                      0                       # What read queue length does an incoming req see
system.mem_ctrls.rdQLenPdf::24                      0                       # What read queue length does an incoming req see
system.mem_ctrls.rdQLenPdf::25                      0                       # What read queue length does an incoming req see
system.mem_ctrls.rdQLenPdf::26                      0                       # What read queue length does an incoming req see
system.mem_ctrls.rdQLenPdf::27                      0                       # What read queue length does an incoming req see
system.mem_ctrls.rdQLenPdf::28                      0                       # What read queue length does an incoming req see
system.mem_ctrls.rdQLenPdf::29                      0                       # What read queue length does an incoming req see
system.mem_ctrls.rdQLenPdf::30                      0                       # What read queue length does an incoming req see
system.mem_ctrls.rdQLenPdf::31                      0                       # What read queue length does an incoming req see
system.mem_ctrls.wrQLenPdf::0                       0                       # What write queue length does an incoming req see
system.mem_ctrls.wrQLenPdf::1                       0                       # What write queue length does an incoming req see
system.mem_ctrls.wrQLenPdf::2                       0                       # What write queue length does an incoming req see
system.mem_ctrls.wrQLenPdf::3                       0                       # What write queue length does an incoming req see
system.mem_ctrls.wrQLenPdf::4                       0                       # What write queue length does an incoming req see
system.mem_ctrls.wrQLenPdf::5                       0                       # What write queue length does an incoming req see
system.mem_ctrls.wrQLenPdf::6                       0                       # What write queue length does an incoming req see
system.mem_ctrls.wrQLenPdf::7                       0                       # What write queue length does an incoming req see
system.mem_ctrls.wrQLenPdf::8                       0                       # What write queue length does an incoming req see
system.mem_ctrls.wrQLenPdf::9                       0                       # What write queue length does an incoming req see
system.mem_ctrls.wrQLenPdf::10                      0                       # What write queue length does an incoming req see
system.mem_ctrls.wrQLenPdf::11                      0                       # What write queue length does an incoming req see
system.mem_ctrls.wrQLenPdf::12                      0                       # What write queue length does an incoming req see
system.mem_ctrls.wrQLenPdf::13                      0                       # What write queue length does an incoming req see
system.mem_ctrls.wrQLenPdf::14                      0                       # What write queue length does an incoming req see
system.mem_ctrls.wrQLenPdf::15                  25690                       # What write queue length does an incoming req see
system.mem_ctrls.wrQLenPdf::16                  27148                       # What write queue length does an incoming req see
system.mem_ctrls.wrQLenPdf::17                  34623                       # What write queue length does an incoming req see
system.mem_ctrls.wrQLenPdf::18                  44200                       # What write queue length does an incoming req see
system.mem_ctrls.wrQLenPdf::19                  44596                       # What write queue length does an incoming req see
system.mem_ctrls.wrQLenPdf::20                  45034                       # What write queue length does an incoming req see
system.mem_ctrls.wrQLenPdf::21                  45329                       # What write queue length does an incoming req see
system.mem_ctrls.wrQLenPdf::22                  44557                       # What write queue length does an incoming req see
system.mem_ctrls.wrQLenPdf::23                  44097                       # What write queue length does an incoming req see
system.mem_ctrls.wrQLenPdf::24                  43865                       # What write queue length does an incoming req see
system.mem_ctrls.wrQLenPdf::25                  43662                       # What write queue length does an incoming req see
system.mem_ctrls.wrQLenPdf::26                  43554                       # What write queue length does an incoming req see
system.mem_ctrls.wrQLenPdf::27                  43564                       # What write queue length does an incoming req see
system.mem_ctrls.wrQLenPdf::28                  43456                       # What write queue length does an incoming req see
system.mem_ctrls.wrQLenPdf::29                  43478                       # What write queue length does an incoming req see
system.mem_ctrls.wrQLenPdf::30                  43310                       # What write queue length does an incoming req see
system.mem_ctrls.wrQLenPdf::31                  43299                       # What write queue length does an incoming req see
system.mem_ctrls.wrQLenPdf::32                  43308                       # What write queue length does an incoming req see
system.mem_ctrls.wrQLenPdf::33                     68                       # What write queue length does an incoming req see
system.mem_ctrls.wrQLenPdf::34                      7                       # What write queue length does an incoming req see
system.mem_ctrls.wrQLenPdf::35                      4                       # What write queue length does an incoming req see
system.mem_ctrls.wrQLenPdf::36                      1                       # What write queue length does an incoming req see
system.mem_ctrls.wrQLenPdf::37                      0                       # What write queue length does an incoming req see
system.mem_ctrls.wrQLenPdf::38                      0                       # What write queue length does an incoming req see
system.mem_ctrls.wrQLenPdf::39                      0                       # What write queue length does an incoming req see
system.mem_ctrls.wrQLenPdf::40                      0                       # What write queue length does an incoming req see
system.mem_ctrls.wrQLenPdf::41                      0                       # What write queue length does an incoming req see
system.mem_ctrls.wrQLenPdf::42                      0                       # What write queue length does an incoming req see
system.mem_ctrls.wrQLenPdf::43                      0                       # What write queue length does an incoming req see
system.mem_ctrls.wrQLenPdf::44                      0                       # What write queue length does an incoming req see
system.mem_ctrls.wrQLenPdf::45                      0                       # What write queue length does an incoming req see
system.mem_ctrls.wrQLenPdf::46                      0                       # What write queue length does an incoming req see
system.mem_ctrls.wrQLenPdf::47                      0                       # What write queue length does an incoming req see
system.mem_ctrls.wrQLenPdf::48                      0                       # What write queue length does an incoming req see
system.mem_ctrls.wrQLenPdf::49                      0                       # What write queue length does an incoming req see
system.mem_ctrls.wrQLenPdf::50                      0                       # What write queue length does an incoming req see
system.mem_ctrls.wrQLenPdf::51                      0                       # What write queue length does an incoming req see
system.mem_ctrls.wrQLenPdf::52                      0                       # What write queue length does an incoming req see
system.mem_ctrls.wrQLenPdf::53                      0                       # What write queue length does an incoming req see
system.mem_ctrls.wrQLenPdf::54                      0                       # What write queue length does an incoming req see
system.mem_ctrls.wrQLenPdf::55                      0                       # What write queue length does an incoming req see
system.mem_ctrls.wrQLenPdf::56                      0                       # What write queue length does an incoming req see
system.mem_ctrls.wrQLenPdf::57                      0                       # What write queue length does an incoming req see
system.mem_ctrls.wrQLenPdf::58                      0                       # What write queue length does an incoming req see
system.mem_ctrls.wrQLenPdf::59                      0                       # What write queue length does an incoming req see
system.mem_ctrls.wrQLenPdf::60                      0                       # What write queue length does an incoming req see
system.mem_ctrls.wrQLenPdf::61                      0                       # What write queue length does an incoming req see
system.mem_ctrls.wrQLenPdf::62                      0                       # What write queue length does an incoming req see
system.mem_ctrls.wrQLenPdf::63                      0                       # What write queue length does an incoming req see
system.mem_ctrls.bytesPerActivate::samples       893667                       # Bytes accessed per row activation
system.mem_ctrls.bytesPerActivate::mean    147.544819                       # Bytes accessed per row activation
system.mem_ctrls.bytesPerActivate::gmean   102.072355                       # Bytes accessed per row activation
system.mem_ctrls.bytesPerActivate::stdev   188.435914                       # Bytes accessed per row activation
system.mem_ctrls.bytesPerActivate::0-127       562263     62.92%     62.92% # Bytes accessed per row activation
system.mem_ctrls.bytesPerActivate::128-255       195312     21.86%     84.77% # Bytes accessed per row activation
system.mem_ctrls.bytesPerActivate::256-383        76140      8.52%     93.29% # Bytes accessed per row activation
system.mem_ctrls.bytesPerActivate::384-511        12145      1.36%     94.65% # Bytes accessed per row activation
system.mem_ctrls.bytesPerActivate::512-639         8596      0.96%     95.61% # Bytes accessed per row activation
system.mem_ctrls.bytesPerActivate::640-767         6524      0.73%     96.34% # Bytes accessed per row activation
system.mem_ctrls.bytesPerActivate::768-895         5881      0.66%     97.00% # Bytes accessed per row activation
system.mem_ctrls.bytesPerActivate::896-1023         4636      0.52%     97.52% # Bytes accessed per row activation
system.mem_ctrls.bytesPerActivate::1024-1151        22170      2.48%    100.00% # Bytes accessed per row activation
system.mem_ctrls.bytesPerActivate::total       893667                       # Bytes accessed per row activation
system.mem_ctrls.rdPerTurnAround::samples        43298                       # Reads before turning the bus around for writes
system.mem_ctrls.rdPerTurnAround::mean      30.321031                       # Reads before turning the bus around for writes
system.mem_ctrls.rdPerTurnAround::stdev     36.821254                       # Reads before turning the bus around for writes
system.mem_ctrls.rdPerTurnAround::0-255         43243     99.87%     99.87% # Reads before turning the bus around for writes
system.mem_ctrls.rdPerTurnAround::256-511           44      0.10%     99.97% # Reads before turning the bus around for writes
system.mem_ctrls.rdPerTurnAround::512-767            6      0.01%     99.99% # Reads before turning the bus around for writes
system.mem_ctrls.rdPerTurnAround::768-1023            1      0.00%     99.99% # Reads before turning the bus around for writes
system.mem_ctrls.rdPerTurnAround::1536-1791            1      0.00%     99.99% # Reads before turning the bus around for writes
system.mem_ctrls.rdPerTurnAround::2048-2303            1      0.00%    100.00% # Reads before turning the bus around for writes
system.mem_ctrls.rdPerTurnAround::2304-2559            1      0.00%    100.00% # Reads before turning the bus around for writes
system.mem_ctrls.rdPerTurnAround::4608-4863            1      0.00%    100.00% # Reads before turning the bus around for writes
system.mem_ctrls.rdPerTurnAround::total         43298                       # Reads before turning the bus around for writes
system.mem_ctrls.wrPerTurnAround::samples        43298                       # Writes before turning the bus around for reads
system.mem_ctrls.wrPerTurnAround::mean      17.248995                       # Writes before turning the bus around for reads
system.mem_ctrls.wrPerTurnAround::gmean     17.219285                       # Writes before turning the bus around for reads
system.mem_ctrls.wrPerTurnAround::stdev      1.008046                       # Writes before turning the bus around for reads
system.mem_ctrls.wrPerTurnAround::16            16209     37.44%     37.44% # Writes before turning the bus around for reads
system.mem_ctrls.wrPerTurnAround::17             1302      3.01%     40.44% # Writes before turning the bus around for reads
system.mem_ctrls.wrPerTurnAround::18            24904     57.52%     97.96% # Writes before turning the bus around for reads
system.mem_ctrls.wrPerTurnAround::19              675      1.56%     99.52% # Writes before turning the bus around for reads
system.mem_ctrls.wrPerTurnAround::20              147      0.34%     99.86% # Writes before turning the bus around for reads
system.mem_ctrls.wrPerTurnAround::21               35      0.08%     99.94% # Writes before turning the bus around for reads
system.mem_ctrls.wrPerTurnAround::22               14      0.03%     99.97% # Writes before turning the bus around for reads
system.mem_ctrls.wrPerTurnAround::23                6      0.01%     99.99% # Writes before turning the bus around for reads
system.mem_ctrls.wrPerTurnAround::24                3      0.01%     99.99% # Writes before turning the bus around for reads
system.mem_ctrls.wrPerTurnAround::25                2      0.00%    100.00% # Writes before turning the bus around for reads
system.mem_ctrls.wrPerTurnAround::29                1      0.00%    100.00% # Writes before turning the bus around for reads
system.mem_ctrls.wrPerTurnAround::total         43298                       # Writes before turning the bus around for reads
system.mem_ctrls.totQLat                  11278278742                       # Total ticks spent queuing
system.mem_ctrls.totMemAccLat             35904584992                       # Total ticks spent from burst creation until serviced by the DRAM
system.mem_ctrls.totBusLat                 6567015000                       # Total ticks spent in databus transfers
system.mem_ctrls.avgQLat                      8587.07                       # Average queueing delay per DRAM burst
system.mem_ctrls.avgBusLat                    5000.00                       # Average bus latency per DRAM burst
system.mem_ctrls.avgMemAccLat                27337.07                       # Average memory access latency per DRAM burst
system.mem_ctrls.avgRdBW                        35.95                       # Average DRAM read bandwidth in MiByte/s
system.mem_ctrls.avgWrBW                        20.44                       # Average achieved write bandwidth in MiByte/s
system.mem_ctrls.avgRdBWSys                     36.01                       # Average system read bandwidth in MiByte/s
system.mem_ctrls.avgWrBWSys                     20.44                       # Average system write bandwidth in MiByte/s
system.mem_ctrls.peakBW                      12800.00                       # Theoretical peak bandwidth in MiByte/s
system.mem_ctrls.busUtil                         0.44                       # Data bus utilization in percentage
system.mem_ctrls.busUtilRead                     0.28                       # Data bus utilization in percentage for reads
system.mem_ctrls.busUtilWrite                    0.16                       # Data bus utilization in percentage for writes
system.mem_ctrls.avgRdQLen                       1.00                       # Average read queue length when enqueuing
system.mem_ctrls.avgWrQLen                      24.56                       # Average write queue length when enqueuing
system.mem_ctrls.readRowHits                   984114                       # Number of row buffer hits during reads
system.mem_ctrls.writeRowHits                  182467                       # Number of row buffer hits during writes
system.mem_ctrls.readRowHitRate                 74.93                       # Row buffer hit rate for reads
system.mem_ctrls.writeRowHitRate                24.43                       # Row buffer hit rate for writes
system.mem_ctrls.avgGap                    1133829.21                       # Average gap between requests
system.mem_ctrls.pageHitRate                    56.62                       # Row buffer hit rate, read and write combined
system.mem_ctrls_0.actEnergy               3421383840                       # Energy for activate commands per rank (pJ)
system.mem_ctrls_0.preEnergy               1866826500                       # Energy for precharge commands per rank (pJ)
system.mem_ctrls_0.readEnergy              5284882200                       # Energy for read commands per rank (pJ)
system.mem_ctrls_0.writeEnergy             2442953520                       # Energy for write commands per rank (pJ)
system.mem_ctrls_0.refreshEnergy         153444248880                       # Energy for refresh commands per rank (pJ)
system.mem_ctrls_0.actBackEnergy         339039425700                       # Energy for active background per rank (pJ)
system.mem_ctrls_0.preBackEnergy         1112171576250                       # Energy for precharge background per rank (pJ)
system.mem_ctrls_0.totalEnergy           1617671296890                       # Total energy per rank (pJ)
system.mem_ctrls_0.averagePower            688.578519                       # Core power per rank (mW)
system.mem_ctrls_0.memoryStateTime::IDLE 1843995466250                       # Time in different power states
system.mem_ctrls_0.memoryStateTime::REF   78084240000                       # Time in different power states
system.mem_ctrls_0.memoryStateTime::PRE_PDN            0                       # Time in different power states
system.mem_ctrls_0.memoryStateTime::ACT  416316186250                       # Time in different power states
system.mem_ctrls_0.memoryStateTime::ACT_PDN            0                       # Time in different power states
system.mem_ctrls_1.actEnergy               3421225080                       # Energy for activate commands per rank (pJ)
system.mem_ctrls_1.preEnergy               1866739875                       # Energy for precharge commands per rank (pJ)
system.mem_ctrls_1.readEnergy              5270998200                       # Energy for read commands per rank (pJ)
system.mem_ctrls_1.writeEnergy             2431432080                       # Energy for write commands per rank (pJ)
system.mem_ctrls_1.refreshEnergy         153444248880                       # Energy for refresh commands per rank (pJ)
system.mem_ctrls_1.actBackEnergy         339047050590                       # Energy for active background per rank (pJ)
system.mem_ctrls_1.preBackEnergy         1112164887750                       # Energy for precharge background per rank (pJ)
system.mem_ctrls_1.totalEnergy           1617646582455                       # Total energy per rank (pJ)
system.mem_ctrls_1.averagePower            688.567999                       # Core power per rank (mW)
system.mem_ctrls_1.memoryStateTime::IDLE 1843620658750                       # Time in different power states
system.mem_ctrls_1.memoryStateTime::REF   78084240000                       # Time in different power states
system.mem_ctrls_1.memoryStateTime::PRE_PDN            0                       # Time in different power states
system.mem_ctrls_1.memoryStateTime::ACT  416692846250                       # Time in different power states
system.mem_ctrls_1.memoryStateTime::ACT_PDN            0                       # Time in different power states
system.cpu_voltage_domain.voltage                   1                       # Voltage in Volts
system.cpu_clk_domain.clock                       500                       # Clock period in ticks
system.cpu0.apic_clk_domain.clock                8000                       # Clock period in ticks
system.cpu0.numCycles                      4678791383                       # number of cpu cycles simulated
system.cpu0.numWorkItemsStarted                     0                       # number of work items this cpu started
system.cpu0.numWorkItemsCompleted                   0                       # number of work items this cpu completed
system.cpu0.kern.inst.arm                           0                       # number of arm instructions executed
system.cpu0.kern.inst.quiesce                       0                       # number of quiesce instructions executed
system.cpu0.committedInsts                    3801348                       # Number of instructions committed
system.cpu0.committedOps                      7874741                       # Number of ops (including micro ops) committed
system.cpu0.num_int_alu_accesses              7656165                       # Number of integer alu accesses
system.cpu0.num_fp_alu_accesses                   372                       # Number of float alu accesses
system.cpu0.num_func_calls                     185020                       # number of times a function call or return occured
system.cpu0.num_conditional_control_insts       597732                       # number of instructions that are conditional controls
system.cpu0.num_int_insts                     7656165                       # number of integer instructions
system.cpu0.num_fp_insts                          372                       # number of float instructions
system.cpu0.num_int_register_reads           14975833                       # number of times the integer registers were read
system.cpu0.num_int_register_writes           6311946                       # number of times the integer registers were written
system.cpu0.num_fp_register_reads                 596                       # number of times the floating registers were read
system.cpu0.num_fp_register_writes                261                       # number of times the floating registers were written
system.cpu0.num_cc_register_reads             4674339                       # number of times the CC registers were read
system.cpu0.num_cc_register_writes            2903007                       # number of times the CC registers were written
system.cpu0.num_mem_refs                      1618891                       # number of memory refs
system.cpu0.num_load_insts                    1000441                       # Number of load instructions
system.cpu0.num_store_insts                    618450                       # Number of store instructions
system.cpu0.num_idle_cycles              4661561251.859568                       # Number of idle cycles
system.cpu0.num_busy_cycles              17230131.140432                       # Number of busy cycles
system.cpu0.not_idle_fraction                0.003683                       # Percentage of non-idle cycles
system.cpu0.idle_fraction                    0.996317                       # Percentage of idle cycles
system.cpu0.Branches                           846239                       # Number of branches fetched
system.cpu0.op_class::No_OpClass                78977      1.00%      1.00% # Class of executed instruction
system.cpu0.op_class::IntAlu                  6143170     78.01%     79.01% # Class of executed instruction
system.cpu0.op_class::IntMult                    8682      0.11%     79.12% # Class of executed instruction
system.cpu0.op_class::IntDiv                    24863      0.32%     79.44% # Class of executed instruction
system.cpu0.op_class::FloatAdd                    244      0.00%     79.44% # Class of executed instruction
system.cpu0.op_class::FloatCmp                      0      0.00%     79.44% # Class of executed instruction
system.cpu0.op_class::FloatCvt                      0      0.00%     79.44% # Class of executed instruction
system.cpu0.op_class::FloatMult                     0      0.00%     79.44% # Class of executed instruction
system.cpu0.op_class::FloatDiv                      0      0.00%     79.44% # Class of executed instruction
system.cpu0.op_class::FloatSqrt                     0      0.00%     79.44% # Class of executed instruction
system.cpu0.op_class::SimdAdd                       0      0.00%     79.44% # Class of executed instruction
system.cpu0.op_class::SimdAddAcc                    0      0.00%     79.44% # Class of executed instruction
system.cpu0.op_class::SimdAlu                       0      0.00%     79.44% # Class of executed instruction
system.cpu0.op_class::SimdCmp                       0      0.00%     79.44% # Class of executed instruction
system.cpu0.op_class::SimdCvt                       0      0.00%     79.44% # Class of executed instruction
system.cpu0.op_class::SimdMisc                      0      0.00%     79.44% # Class of executed instruction
system.cpu0.op_class::SimdMult                      0      0.00%     79.44% # Class of executed instruction
system.cpu0.op_class::SimdMultAcc                   0      0.00%     79.44% # Class of executed instruction
system.cpu0.op_class::SimdShift                     0      0.00%     79.44% # Class of executed instruction
system.cpu0.op_class::SimdShiftAcc                  0      0.00%     79.44% # Class of executed instruction
system.cpu0.op_class::SimdSqrt                      0      0.00%     79.44% # Class of executed instruction
system.cpu0.op_class::SimdFloatAdd                  0      0.00%     79.44% # Class of executed instruction
system.cpu0.op_class::SimdFloatAlu                  0      0.00%     79.44% # Class of executed instruction
system.cpu0.op_class::SimdFloatCmp                  0      0.00%     79.44% # Class of executed instruction
system.cpu0.op_class::SimdFloatCvt                  0      0.00%     79.44% # Class of executed instruction
system.cpu0.op_class::SimdFloatDiv                  0      0.00%     79.44% # Class of executed instruction
system.cpu0.op_class::SimdFloatMisc                 0      0.00%     79.44% # Class of executed instruction
system.cpu0.op_class::SimdFloatMult                 0      0.00%     79.44% # Class of executed instruction
system.cpu0.op_class::SimdFloatMultAcc              0      0.00%     79.44% # Class of executed instruction
system.cpu0.op_class::SimdFloatSqrt                 0      0.00%     79.44% # Class of executed instruction
system.cpu0.op_class::MemRead                 1000441     12.70%     92.15% # Class of executed instruction
system.cpu0.op_class::MemWrite                 618450      7.85%    100.00% # Class of executed instruction
system.cpu0.op_class::IprAccess                     0      0.00%    100.00% # Class of executed instruction
system.cpu0.op_class::InstPrefetch                  0      0.00%    100.00% # Class of executed instruction
system.cpu0.op_class::total                   7874827                       # Class of executed instruction
system.cpu1.apic_clk_domain.clock                8000                       # Clock period in ticks
system.cpu1.numCycles                      4673769749                       # number of cpu cycles simulated
system.cpu1.numWorkItemsStarted                     0                       # number of work items this cpu started
system.cpu1.numWorkItemsCompleted                   0                       # number of work items this cpu completed
system.cpu1.kern.inst.arm                           0                       # number of arm instructions executed
system.cpu1.kern.inst.quiesce                       0                       # number of quiesce instructions executed
system.cpu1.committedInsts                 1297719452                       # Number of instructions committed
system.cpu1.committedOps                   2349170509                       # Number of ops (including micro ops) committed
system.cpu1.num_int_alu_accesses           1507193847                       # Number of integer alu accesses
system.cpu1.num_fp_alu_accesses            1130300518                       # Number of float alu accesses
system.cpu1.num_func_calls                     802131                       # number of times a function call or return occured
system.cpu1.num_conditional_control_insts    160945981                       # number of instructions that are conditional controls
system.cpu1.num_int_insts                  1507193847                       # number of integer instructions
system.cpu1.num_fp_insts                   1130300518                       # number of float instructions
system.cpu1.num_int_register_reads         2940975277                       # number of times the integer registers were read
system.cpu1.num_int_register_writes        1034175188                       # number of times the integer registers were written
system.cpu1.num_fp_register_reads          1382500686                       # number of times the floating registers were read
system.cpu1.num_fp_register_writes         1075410587                       # number of times the floating registers were written
system.cpu1.num_cc_register_reads           939441904                       # number of times the CC registers were read
system.cpu1.num_cc_register_writes          528249407                       # number of times the CC registers were written
system.cpu1.num_mem_refs                    388391818                       # number of memory refs
system.cpu1.num_load_insts                  349993760                       # Number of load instructions
system.cpu1.num_store_insts                  38398058                       # Number of store instructions
system.cpu1.num_idle_cycles              21198409.747591                       # Number of idle cycles
system.cpu1.num_busy_cycles              4652571339.252409                       # Number of busy cycles
system.cpu1.not_idle_fraction                0.995464                       # Percentage of non-idle cycles
system.cpu1.idle_fraction                    0.004536                       # Percentage of idle cycles
system.cpu1.Branches                        166340448                       # Number of branches fetched
system.cpu1.op_class::No_OpClass              3904157      0.17%      0.17% # Class of executed instruction
system.cpu1.op_class::IntAlu               1229177048     52.32%     52.49% # Class of executed instruction
system.cpu1.op_class::IntMult                 4268441      0.18%     52.67% # Class of executed instruction
system.cpu1.op_class::IntDiv                      938      0.00%     52.67% # Class of executed instruction
system.cpu1.op_class::FloatAdd              723444434     30.80%     83.47% # Class of executed instruction
system.cpu1.op_class::FloatCmp                      0      0.00%     83.47% # Class of executed instruction
system.cpu1.op_class::FloatCvt                      0      0.00%     83.47% # Class of executed instruction
system.cpu1.op_class::FloatMult                     0      0.00%     83.47% # Class of executed instruction
system.cpu1.op_class::FloatDiv                      0      0.00%     83.47% # Class of executed instruction
system.cpu1.op_class::FloatSqrt                     0      0.00%     83.47% # Class of executed instruction
system.cpu1.op_class::SimdAdd                       0      0.00%     83.47% # Class of executed instruction
system.cpu1.op_class::SimdAddAcc                    0      0.00%     83.47% # Class of executed instruction
system.cpu1.op_class::SimdAlu                       0      0.00%     83.47% # Class of executed instruction
system.cpu1.op_class::SimdCmp                       0      0.00%     83.47% # Class of executed instruction
system.cpu1.op_class::SimdCvt                       0      0.00%     83.47% # Class of executed instruction
system.cpu1.op_class::SimdMisc                      0      0.00%     83.47% # Class of executed instruction
system.cpu1.op_class::SimdMult                      0      0.00%     83.47% # Class of executed instruction
system.cpu1.op_class::SimdMultAcc                   0      0.00%     83.47% # Class of executed instruction
system.cpu1.op_class::SimdShift                     0      0.00%     83.47% # Class of executed instruction
system.cpu1.op_class::SimdShiftAcc                  0      0.00%     83.47% # Class of executed instruction
system.cpu1.op_class::SimdSqrt                      0      0.00%     83.47% # Class of executed instruction
system.cpu1.op_class::SimdFloatAdd                  0      0.00%     83.47% # Class of executed instruction
system.cpu1.op_class::SimdFloatAlu                  0      0.00%     83.47% # Class of executed instruction
system.cpu1.op_class::SimdFloatCmp                  0      0.00%     83.47% # Class of executed instruction
system.cpu1.op_class::SimdFloatCvt                  0      0.00%     83.47% # Class of executed instruction
system.cpu1.op_class::SimdFloatDiv                  0      0.00%     83.47% # Class of executed instruction
system.cpu1.op_class::SimdFloatMisc                 0      0.00%     83.47% # Class of executed instruction
system.cpu1.op_class::SimdFloatMult                 0      0.00%     83.47% # Class of executed instruction
system.cpu1.op_class::SimdFloatMultAcc              0      0.00%     83.47% # Class of executed instruction
system.cpu1.op_class::SimdFloatSqrt                 0      0.00%     83.47% # Class of executed instruction
system.cpu1.op_class::MemRead               349993760     14.90%     98.37% # Class of executed instruction
system.cpu1.op_class::MemWrite               38398058      1.63%    100.00% # Class of executed instruction
system.cpu1.op_class::IprAccess                     0      0.00%    100.00% # Class of executed instruction
system.cpu1.op_class::InstPrefetch                  0      0.00%    100.00% # Class of executed instruction
system.cpu1.op_class::total                2349186836                       # Class of executed instruction
system.cpu2.apic_clk_domain.clock                8000                       # Clock period in ticks
system.cpu2.numCycles                      4674776289                       # number of cpu cycles simulated
system.cpu2.numWorkItemsStarted                     0                       # number of work items this cpu started
system.cpu2.numWorkItemsCompleted                   0                       # number of work items this cpu completed
system.cpu2.kern.inst.arm                           0                       # number of arm instructions executed
system.cpu2.kern.inst.quiesce                       0                       # number of quiesce instructions executed
system.cpu2.committedInsts                    4660995                       # Number of instructions committed
system.cpu2.committedOps                      9379378                       # Number of ops (including micro ops) committed
system.cpu2.num_int_alu_accesses              9210608                       # Number of integer alu accesses
system.cpu2.num_fp_alu_accesses                  1778                       # Number of float alu accesses
system.cpu2.num_func_calls                     242504                       # number of times a function call or return occured
system.cpu2.num_conditional_control_insts       807077                       # number of instructions that are conditional controls
system.cpu2.num_int_insts                     9210608                       # number of integer instructions
system.cpu2.num_fp_insts                         1778                       # number of float instructions
system.cpu2.num_int_register_reads           18223471                       # number of times the integer registers were read
system.cpu2.num_int_register_writes           7498087                       # number of times the integer registers were written
system.cpu2.num_fp_register_reads                2988                       # number of times the floating registers were read
system.cpu2.num_fp_register_writes               1416                       # number of times the floating registers were written
system.cpu2.num_cc_register_reads             6030397                       # number of times the CC registers were read
system.cpu2.num_cc_register_writes            3199050                       # number of times the CC registers were written
system.cpu2.num_mem_refs                      2086126                       # number of memory refs
system.cpu2.num_load_insts                    1352583                       # Number of load instructions
system.cpu2.num_store_insts                    733543                       # Number of store instructions
system.cpu2.num_idle_cycles              4655228751.312326                       # Number of idle cycles
system.cpu2.num_busy_cycles              19547537.687674                       # Number of busy cycles
system.cpu2.not_idle_fraction                0.004181                       # Percentage of non-idle cycles
system.cpu2.idle_fraction                    0.995819                       # Percentage of idle cycles
system.cpu2.Branches                          1094502                       # Number of branches fetched
system.cpu2.op_class::No_OpClass                72853      0.78%      0.78% # Class of executed instruction
system.cpu2.op_class::IntAlu                  7186447     76.62%     77.40% # Class of executed instruction
system.cpu2.op_class::IntMult                    8329      0.09%     77.48% # Class of executed instruction
system.cpu2.op_class::IntDiv                    24369      0.26%     77.74% # Class of executed instruction
system.cpu2.op_class::FloatAdd                   1344      0.01%     77.76% # Class of executed instruction
system.cpu2.op_class::FloatCmp                      0      0.00%     77.76% # Class of executed instruction
system.cpu2.op_class::FloatCvt                      0      0.00%     77.76% # Class of executed instruction
system.cpu2.op_class::FloatMult                     0      0.00%     77.76% # Class of executed instruction
system.cpu2.op_class::FloatDiv                      0      0.00%     77.76% # Class of executed instruction
system.cpu2.op_class::FloatSqrt                     0      0.00%     77.76% # Class of executed instruction
system.cpu2.op_class::SimdAdd                       0      0.00%     77.76% # Class of executed instruction
system.cpu2.op_class::SimdAddAcc                    0      0.00%     77.76% # Class of executed instruction
system.cpu2.op_class::SimdAlu                       0      0.00%     77.76% # Class of executed instruction
system.cpu2.op_class::SimdCmp                       0      0.00%     77.76% # Class of executed instruction
system.cpu2.op_class::SimdCvt                       0      0.00%     77.76% # Class of executed instruction
system.cpu2.op_class::SimdMisc                      0      0.00%     77.76% # Class of executed instruction
system.cpu2.op_class::SimdMult                      0      0.00%     77.76% # Class of executed instruction
system.cpu2.op_class::SimdMultAcc                   0      0.00%     77.76% # Class of executed instruction
system.cpu2.op_class::SimdShift                     0      0.00%     77.76% # Class of executed instruction
system.cpu2.op_class::SimdShiftAcc                  0      0.00%     77.76% # Class of executed instruction
system.cpu2.op_class::SimdSqrt                      0      0.00%     77.76% # Class of executed instruction
system.cpu2.op_class::SimdFloatAdd                  0      0.00%     77.76% # Class of executed instruction
system.cpu2.op_class::SimdFloatAlu                  0      0.00%     77.76% # Class of executed instruction
system.cpu2.op_class::SimdFloatCmp                  0      0.00%     77.76% # Class of executed instruction
system.cpu2.op_class::SimdFloatCvt                  0      0.00%     77.76% # Class of executed instruction
system.cpu2.op_class::SimdFloatDiv                  0      0.00%     77.76% # Class of executed instruction
system.cpu2.op_class::SimdFloatMisc                 0      0.00%     77.76% # Class of executed instruction
system.cpu2.op_class::SimdFloatMult                 0      0.00%     77.76% # Class of executed instruction
system.cpu2.op_class::SimdFloatMultAcc              0      0.00%     77.76% # Class of executed instruction
system.cpu2.op_class::SimdFloatSqrt                 0      0.00%     77.76% # Class of executed instruction
system.cpu2.op_class::MemRead                 1352583     14.42%     92.18% # Class of executed instruction
system.cpu2.op_class::MemWrite                 733543      7.82%    100.00% # Class of executed instruction
system.cpu2.op_class::IprAccess                     0      0.00%    100.00% # Class of executed instruction
system.cpu2.op_class::InstPrefetch                  0      0.00%    100.00% # Class of executed instruction
system.cpu2.op_class::total                   9379468                       # Class of executed instruction
system.cpu3.apic_clk_domain.clock                8000                       # Clock period in ticks
system.cpu3.numCycles                      4679407373                       # number of cpu cycles simulated
system.cpu3.numWorkItemsStarted                     0                       # number of work items this cpu started
system.cpu3.numWorkItemsCompleted                   0                       # number of work items this cpu completed
system.cpu3.kern.inst.arm                           0                       # number of arm instructions executed
system.cpu3.kern.inst.quiesce                       0                       # number of quiesce instructions executed
system.cpu3.committedInsts                    1785091                       # Number of instructions committed
system.cpu3.committedOps                      3815018                       # Number of ops (including micro ops) committed
system.cpu3.num_int_alu_accesses              3739781                       # Number of integer alu accesses
system.cpu3.num_fp_alu_accesses                    39                       # Number of float alu accesses
system.cpu3.num_func_calls                     102224                       # number of times a function call or return occured
system.cpu3.num_conditional_control_insts       295734                       # number of instructions that are conditional controls
system.cpu3.num_int_insts                     3739781                       # number of integer instructions
system.cpu3.num_fp_insts                           39                       # number of float instructions
system.cpu3.num_int_register_reads            7450979                       # number of times the integer registers were read
system.cpu3.num_int_register_writes           3080960                       # number of times the integer registers were written
system.cpu3.num_fp_register_reads                  63                       # number of times the floating registers were read
system.cpu3.num_fp_register_writes                 31                       # number of times the floating registers were written
system.cpu3.num_cc_register_reads             2268159                       # number of times the CC registers were read
system.cpu3.num_cc_register_writes            1169870                       # number of times the CC registers were written
system.cpu3.num_mem_refs                       865584                       # number of memory refs
system.cpu3.num_load_insts                     539804                       # Number of load instructions
system.cpu3.num_store_insts                    325780                       # Number of store instructions
system.cpu3.num_idle_cycles              4671852473.966612                       # Number of idle cycles
system.cpu3.num_busy_cycles              7554899.033388                       # Number of busy cycles
system.cpu3.not_idle_fraction                0.001614                       # Percentage of non-idle cycles
system.cpu3.idle_fraction                    0.998386                       # Percentage of idle cycles
system.cpu3.Branches                           430501                       # Number of branches fetched
system.cpu3.op_class::No_OpClass                60321      1.58%      1.58% # Class of executed instruction
system.cpu3.op_class::IntAlu                  2861066     74.99%     76.58% # Class of executed instruction
system.cpu3.op_class::IntMult                    7285      0.19%     76.77% # Class of executed instruction
system.cpu3.op_class::IntDiv                    20754      0.54%     77.31% # Class of executed instruction
system.cpu3.op_class::FloatAdd                     30      0.00%     77.31% # Class of executed instruction
system.cpu3.op_class::FloatCmp                      0      0.00%     77.31% # Class of executed instruction
system.cpu3.op_class::FloatCvt                      0      0.00%     77.31% # Class of executed instruction
system.cpu3.op_class::FloatMult                     0      0.00%     77.31% # Class of executed instruction
system.cpu3.op_class::FloatDiv                      0      0.00%     77.31% # Class of executed instruction
system.cpu3.op_class::FloatSqrt                     0      0.00%     77.31% # Class of executed instruction
system.cpu3.op_class::SimdAdd                       0      0.00%     77.31% # Class of executed instruction
system.cpu3.op_class::SimdAddAcc                    0      0.00%     77.31% # Class of executed instruction
system.cpu3.op_class::SimdAlu                       0      0.00%     77.31% # Class of executed instruction
system.cpu3.op_class::SimdCmp                       0      0.00%     77.31% # Class of executed instruction
system.cpu3.op_class::SimdCvt                       0      0.00%     77.31% # Class of executed instruction
system.cpu3.op_class::SimdMisc                      0      0.00%     77.31% # Class of executed instruction
system.cpu3.op_class::SimdMult                      0      0.00%     77.31% # Class of executed instruction
system.cpu3.op_class::SimdMultAcc                   0      0.00%     77.31% # Class of executed instruction
system.cpu3.op_class::SimdShift                     0      0.00%     77.31% # Class of executed instruction
system.cpu3.op_class::SimdShiftAcc                  0      0.00%     77.31% # Class of executed instruction
system.cpu3.op_class::SimdSqrt                      0      0.00%     77.31% # Class of executed instruction
system.cpu3.op_class::SimdFloatAdd                  0      0.00%     77.31% # Class of executed instruction
system.cpu3.op_class::SimdFloatAlu                  0      0.00%     77.31% # Class of executed instruction
system.cpu3.op_class::SimdFloatCmp                  0      0.00%     77.31% # Class of executed instruction
system.cpu3.op_class::SimdFloatCvt                  0      0.00%     77.31% # Class of executed instruction
system.cpu3.op_class::SimdFloatDiv                  0      0.00%     77.31% # Class of executed instruction
system.cpu3.op_class::SimdFloatMisc                 0      0.00%     77.31% # Class of executed instruction
system.cpu3.op_class::SimdFloatMult                 0      0.00%     77.31% # Class of executed instruction
system.cpu3.op_class::SimdFloatMultAcc              0      0.00%     77.31% # Class of executed instruction
system.cpu3.op_class::SimdFloatSqrt                 0      0.00%     77.31% # Class of executed instruction
system.cpu3.op_class::MemRead                  539804     14.15%     91.46% # Class of executed instruction
system.cpu3.op_class::MemWrite                 325780      8.54%    100.00% # Class of executed instruction
system.cpu3.op_class::IprAccess                     0      0.00%    100.00% # Class of executed instruction
system.cpu3.op_class::InstPrefetch                  0      0.00%    100.00% # Class of executed instruction
system.cpu3.op_class::total                   3815040                       # Class of executed instruction
system.iobus.trans_dist::ReadReq                  406                       # Transaction distribution
system.iobus.trans_dist::ReadResp                 406                       # Transaction distribution
system.iobus.trans_dist::WriteReq                3053                       # Transaction distribution
system.iobus.trans_dist::WriteResp               3053                       # Transaction distribution
system.iobus.trans_dist::MessageReq                56                       # Transaction distribution
system.iobus.trans_dist::MessageResp               56                       # Transaction distribution
system.iobus.pkt_count_system.pc.south_bridge.io_apic.int_master::system.ruby.l1_cntrl0.sequencer.pio-slave-port           22                       # Packet count per connected master and slave (bytes)
system.iobus.pkt_count_system.pc.south_bridge.io_apic.int_master::system.ruby.l1_cntrl1.sequencer.pio-slave-port           22                       # Packet count per connected master and slave (bytes)
system.iobus.pkt_count_system.pc.south_bridge.io_apic.int_master::system.ruby.l1_cntrl2.sequencer.pio-slave-port           22                       # Packet count per connected master and slave (bytes)
system.iobus.pkt_count_system.pc.south_bridge.io_apic.int_master::system.ruby.l1_cntrl3.sequencer.pio-slave-port           24                       # Packet count per connected master and slave (bytes)
system.iobus.pkt_count_system.pc.south_bridge.io_apic.int_master::total           90                       # Packet count per connected master and slave (bytes)
system.iobus.pkt_count_system.ruby.l1_cntrl0.sequencer.mem-master-port::system.pc.south_bridge.ide.pio          358                       # Packet count per connected master and slave (bytes)
system.iobus.pkt_count_system.ruby.l1_cntrl0.sequencer.mem-master-port::system.pc.south_bridge.io_apic.pio            8                       # Packet count per connected master and slave (bytes)
system.iobus.pkt_count_system.ruby.l1_cntrl0.sequencer.mem-master-port::system.ruby.l1_cntrl0.sequencer.pio-slave-port         1224                       # Packet count per connected master and slave (bytes)
system.iobus.pkt_count_system.ruby.l1_cntrl0.sequencer.mem-master-port::system.ruby.l1_cntrl1.sequencer.pio-slave-port            6                       # Packet count per connected master and slave (bytes)
system.iobus.pkt_count_system.ruby.l1_cntrl0.sequencer.mem-master-port::system.ruby.l1_cntrl3.sequencer.pio-slave-port            2                       # Packet count per connected master and slave (bytes)
system.iobus.pkt_count_system.ruby.l1_cntrl0.sequencer.mem-master-port::total         1598                       # Packet count per connected master and slave (bytes)
system.iobus.pkt_count_system.ruby.l1_cntrl1.sequencer.mem-master-port::system.pc.south_bridge.ide.pio          630                       # Packet count per connected master and slave (bytes)
system.iobus.pkt_count_system.ruby.l1_cntrl1.sequencer.mem-master-port::system.pc.south_bridge.io_apic.pio            8                       # Packet count per connected master and slave (bytes)
system.iobus.pkt_count_system.ruby.l1_cntrl1.sequencer.mem-master-port::system.ruby.l1_cntrl0.sequencer.pio-slave-port            4                       # Packet count per connected master and slave (bytes)
system.iobus.pkt_count_system.ruby.l1_cntrl1.sequencer.mem-master-port::system.ruby.l1_cntrl1.sequencer.pio-slave-port         1218                       # Packet count per connected master and slave (bytes)
system.iobus.pkt_count_system.ruby.l1_cntrl1.sequencer.mem-master-port::system.ruby.l1_cntrl2.sequencer.pio-slave-port            2                       # Packet count per connected master and slave (bytes)
system.iobus.pkt_count_system.ruby.l1_cntrl1.sequencer.mem-master-port::total         1862                       # Packet count per connected master and slave (bytes)
system.iobus.pkt_count_system.ruby.l1_cntrl2.sequencer.mem-master-port::system.pc.south_bridge.ide.pio          392                       # Packet count per connected master and slave (bytes)
system.iobus.pkt_count_system.ruby.l1_cntrl2.sequencer.mem-master-port::system.pc.south_bridge.io_apic.pio            6                       # Packet count per connected master and slave (bytes)
system.iobus.pkt_count_system.ruby.l1_cntrl2.sequencer.mem-master-port::system.pc.com_1.pio           22                       # Packet count per connected master and slave (bytes)
system.iobus.pkt_count_system.ruby.l1_cntrl2.sequencer.mem-master-port::system.ruby.l1_cntrl0.sequencer.pio-slave-port            2                       # Packet count per connected master and slave (bytes)
system.iobus.pkt_count_system.ruby.l1_cntrl2.sequencer.mem-master-port::system.ruby.l1_cntrl1.sequencer.pio-slave-port            2                       # Packet count per connected master and slave (bytes)
system.iobus.pkt_count_system.ruby.l1_cntrl2.sequencer.mem-master-port::system.ruby.l1_cntrl2.sequencer.pio-slave-port         1212                       # Packet count per connected master and slave (bytes)
system.iobus.pkt_count_system.ruby.l1_cntrl2.sequencer.mem-master-port::system.ruby.l1_cntrl3.sequencer.pio-slave-port            2                       # Packet count per connected master and slave (bytes)
system.iobus.pkt_count_system.ruby.l1_cntrl2.sequencer.mem-master-port::total         1638                       # Packet count per connected master and slave (bytes)
system.iobus.pkt_count_system.ruby.l1_cntrl3.sequencer.mem-master-port::system.pc.south_bridge.ide.pio          460                       # Packet count per connected master and slave (bytes)
system.iobus.pkt_count_system.ruby.l1_cntrl3.sequencer.mem-master-port::system.pc.south_bridge.io_apic.pio           14                       # Packet count per connected master and slave (bytes)
system.iobus.pkt_count_system.ruby.l1_cntrl3.sequencer.mem-master-port::system.pc.com_1.pio          162                       # Packet count per connected master and slave (bytes)
system.iobus.pkt_count_system.ruby.l1_cntrl3.sequencer.mem-master-port::system.ruby.l1_cntrl0.sequencer.pio-slave-port            2                       # Packet count per connected master and slave (bytes)
system.iobus.pkt_count_system.ruby.l1_cntrl3.sequencer.mem-master-port::system.ruby.l1_cntrl3.sequencer.pio-slave-port         1204                       # Packet count per connected master and slave (bytes)
system.iobus.pkt_count_system.ruby.l1_cntrl3.sequencer.mem-master-port::total         1842                       # Packet count per connected master and slave (bytes)
system.iobus.pkt_count::total                    7030                       # Packet count per connected master and slave (bytes)
system.iobus.pkt_size_system.pc.south_bridge.io_apic.int_master::system.ruby.l1_cntrl0.sequencer.pio-slave-port           44                       # Cumulative packet size per connected master and slave (bytes)
system.iobus.pkt_size_system.pc.south_bridge.io_apic.int_master::system.ruby.l1_cntrl1.sequencer.pio-slave-port           44                       # Cumulative packet size per connected master and slave (bytes)
system.iobus.pkt_size_system.pc.south_bridge.io_apic.int_master::system.ruby.l1_cntrl2.sequencer.pio-slave-port           44                       # Cumulative packet size per connected master and slave (bytes)
system.iobus.pkt_size_system.pc.south_bridge.io_apic.int_master::system.ruby.l1_cntrl3.sequencer.pio-slave-port           48                       # Cumulative packet size per connected master and slave (bytes)
system.iobus.pkt_size_system.pc.south_bridge.io_apic.int_master::total          180                       # Cumulative packet size per connected master and slave (bytes)
system.iobus.pkt_size_system.ruby.l1_cntrl0.sequencer.mem-master-port::system.pc.south_bridge.ide.pio          200                       # Cumulative packet size per connected master and slave (bytes)
system.iobus.pkt_size_system.ruby.l1_cntrl0.sequencer.mem-master-port::system.pc.south_bridge.io_apic.pio           16                       # Cumulative packet size per connected master and slave (bytes)
system.iobus.pkt_size_system.ruby.l1_cntrl0.sequencer.mem-master-port::system.ruby.l1_cntrl0.sequencer.pio-slave-port         2448                       # Cumulative packet size per connected master and slave (bytes)
system.iobus.pkt_size_system.ruby.l1_cntrl0.sequencer.mem-master-port::system.ruby.l1_cntrl1.sequencer.pio-slave-port           12                       # Cumulative packet size per connected master and slave (bytes)
system.iobus.pkt_size_system.ruby.l1_cntrl0.sequencer.mem-master-port::system.ruby.l1_cntrl3.sequencer.pio-slave-port            4                       # Cumulative packet size per connected master and slave (bytes)
system.iobus.pkt_size_system.ruby.l1_cntrl0.sequencer.mem-master-port::total         2680                       # Cumulative packet size per connected master and slave (bytes)
system.iobus.pkt_size_system.ruby.l1_cntrl1.sequencer.mem-master-port::system.pc.south_bridge.ide.pio          360                       # Cumulative packet size per connected master and slave (bytes)
system.iobus.pkt_size_system.ruby.l1_cntrl1.sequencer.mem-master-port::system.pc.south_bridge.io_apic.pio           16                       # Cumulative packet size per connected master and slave (bytes)
system.iobus.pkt_size_system.ruby.l1_cntrl1.sequencer.mem-master-port::system.ruby.l1_cntrl0.sequencer.pio-slave-port            8                       # Cumulative packet size per connected master and slave (bytes)
system.iobus.pkt_size_system.ruby.l1_cntrl1.sequencer.mem-master-port::system.ruby.l1_cntrl1.sequencer.pio-slave-port         2436                       # Cumulative packet size per connected master and slave (bytes)
system.iobus.pkt_size_system.ruby.l1_cntrl1.sequencer.mem-master-port::system.ruby.l1_cntrl2.sequencer.pio-slave-port            4                       # Cumulative packet size per connected master and slave (bytes)
system.iobus.pkt_size_system.ruby.l1_cntrl1.sequencer.mem-master-port::total         2824                       # Cumulative packet size per connected master and slave (bytes)
system.iobus.pkt_size_system.ruby.l1_cntrl2.sequencer.mem-master-port::system.pc.south_bridge.ide.pio          220                       # Cumulative packet size per connected master and slave (bytes)
system.iobus.pkt_size_system.ruby.l1_cntrl2.sequencer.mem-master-port::system.pc.south_bridge.io_apic.pio           12                       # Cumulative packet size per connected master and slave (bytes)
system.iobus.pkt_size_system.ruby.l1_cntrl2.sequencer.mem-master-port::system.pc.com_1.pio           11                       # Cumulative packet size per connected master and slave (bytes)
system.iobus.pkt_size_system.ruby.l1_cntrl2.sequencer.mem-master-port::system.ruby.l1_cntrl0.sequencer.pio-slave-port            4                       # Cumulative packet size per connected master and slave (bytes)
system.iobus.pkt_size_system.ruby.l1_cntrl2.sequencer.mem-master-port::system.ruby.l1_cntrl1.sequencer.pio-slave-port            4                       # Cumulative packet size per connected master and slave (bytes)
system.iobus.pkt_size_system.ruby.l1_cntrl2.sequencer.mem-master-port::system.ruby.l1_cntrl2.sequencer.pio-slave-port         2424                       # Cumulative packet size per connected master and slave (bytes)
system.iobus.pkt_size_system.ruby.l1_cntrl2.sequencer.mem-master-port::system.ruby.l1_cntrl3.sequencer.pio-slave-port            4                       # Cumulative packet size per connected master and slave (bytes)
system.iobus.pkt_size_system.ruby.l1_cntrl2.sequencer.mem-master-port::total         2679                       # Cumulative packet size per connected master and slave (bytes)
system.iobus.pkt_size_system.ruby.l1_cntrl3.sequencer.mem-master-port::system.pc.south_bridge.ide.pio          260                       # Cumulative packet size per connected master and slave (bytes)
system.iobus.pkt_size_system.ruby.l1_cntrl3.sequencer.mem-master-port::system.pc.south_bridge.io_apic.pio           28                       # Cumulative packet size per connected master and slave (bytes)
system.iobus.pkt_size_system.ruby.l1_cntrl3.sequencer.mem-master-port::system.pc.com_1.pio           81                       # Cumulative packet size per connected master and slave (bytes)
system.iobus.pkt_size_system.ruby.l1_cntrl3.sequencer.mem-master-port::system.ruby.l1_cntrl0.sequencer.pio-slave-port            4                       # Cumulative packet size per connected master and slave (bytes)
system.iobus.pkt_size_system.ruby.l1_cntrl3.sequencer.mem-master-port::system.ruby.l1_cntrl3.sequencer.pio-slave-port         2408                       # Cumulative packet size per connected master and slave (bytes)
system.iobus.pkt_size_system.ruby.l1_cntrl3.sequencer.mem-master-port::total         2781                       # Cumulative packet size per connected master and slave (bytes)
system.iobus.pkt_size::total                    11144                       # Cumulative packet size per connected master and slave (bytes)
system.iobus.reqLayer2.occupancy              1588500                       # Layer occupancy (ticks)
system.iobus.reqLayer2.utilization                0.0                       # Layer utilization (%)
system.iobus.reqLayer8.occupancy                33996                       # Layer occupancy (ticks)
system.iobus.reqLayer8.utilization                0.0                       # Layer utilization (%)
system.iobus.reqLayer12.occupancy              119500                       # Layer occupancy (ticks)
system.iobus.reqLayer12.utilization               0.0                       # Layer utilization (%)
system.iobus.reqLayer17.occupancy             1558489                       # Layer occupancy (ticks)
system.iobus.reqLayer17.utilization               0.0                       # Layer utilization (%)
system.iobus.reqLayer18.occupancy             1660473                       # Layer occupancy (ticks)
system.iobus.reqLayer18.utilization               0.0                       # Layer utilization (%)
system.iobus.reqLayer19.occupancy             1539987                       # Layer occupancy (ticks)
system.iobus.reqLayer19.utilization               0.0                       # Layer utilization (%)
system.iobus.reqLayer20.occupancy             1534990                       # Layer occupancy (ticks)
system.iobus.reqLayer20.utilization               0.0                       # Layer utilization (%)
system.iobus.respLayer0.occupancy               75460                       # Layer occupancy (ticks)
system.iobus.respLayer0.utilization               0.0                       # Layer utilization (%)
system.iobus.respLayer2.occupancy             1179000                       # Layer occupancy (ticks)
system.iobus.respLayer2.utilization               0.0                       # Layer utilization (%)
system.iobus.respLayer4.occupancy             1340500                       # Layer occupancy (ticks)
system.iobus.respLayer4.utilization               0.0                       # Layer utilization (%)
system.iobus.respLayer6.occupancy             1206000                       # Layer occupancy (ticks)
system.iobus.respLayer6.utilization               0.0                       # Layer utilization (%)
system.iobus.respLayer8.occupancy             1365000                       # Layer occupancy (ticks)
system.iobus.respLayer8.utilization               0.0                       # Layer utilization (%)
system.pc.south_bridge.ide.disks.dma_read_full_pages          356                       # Number of full page size DMA reads (not PRD).
system.pc.south_bridge.ide.disks.dma_read_bytes      1458176                       # Number of bytes transfered via DMA reads (not PRD).
system.pc.south_bridge.ide.disks.dma_read_txs          356                       # Number of DMA read transactions (not PRD).
system.pc.south_bridge.ide.disks.dma_write_full_pages            0                       # Number of full page size DMA writes.
system.pc.south_bridge.ide.disks.dma_write_bytes            0                       # Number of bytes transfered via DMA writes.
system.pc.south_bridge.ide.disks.dma_write_txs            0                       # Number of DMA write transactions.
system.ruby.clk_domain.clock                      500                       # Clock period in ticks
system.ruby.outstanding_req_hist_seqr::bucket_size            1                      
system.ruby.outstanding_req_hist_seqr::max_bucket            9                      
system.ruby.outstanding_req_hist_seqr::samples   2273551903                      
system.ruby.outstanding_req_hist_seqr::mean     1.001963                      
system.ruby.outstanding_req_hist_seqr::gmean     1.001361                      
system.ruby.outstanding_req_hist_seqr::stdev     0.044260                      
system.ruby.outstanding_req_hist_seqr    |           0      0.00%      0.00% |  2269089345     99.80%     99.80% |     4462558      0.20%    100.00% |           0      0.00%    100.00% |           0      0.00%    100.00% |           0      0.00%    100.00% |           0      0.00%    100.00% |           0      0.00%    100.00% |           0      0.00%    100.00% |           0      0.00%    100.00%
system.ruby.outstanding_req_hist_seqr::total   2273551903                      
system.ruby.latency_hist_seqr::bucket_size          128                      
system.ruby.latency_hist_seqr::max_bucket         1279                      
system.ruby.latency_hist_seqr::samples     2273551903                      
system.ruby.latency_hist_seqr::mean          1.068984                      
system.ruby.latency_hist_seqr::gmean         1.003756                      
system.ruby.latency_hist_seqr::stdev         3.045593                      
system.ruby.latency_hist_seqr            |  2273453843    100.00%    100.00% |       66911      0.00%    100.00% |       12754      0.00%    100.00% |        5995      0.00%    100.00% |        9814      0.00%    100.00% |        2375      0.00%    100.00% |         133      0.00%    100.00% |          69      0.00%    100.00% |           9      0.00%    100.00% |           0      0.00%    100.00%
system.ruby.latency_hist_seqr::total       2273551903                      
system.ruby.hit_latency_hist_seqr::bucket_size            2                      
system.ruby.hit_latency_hist_seqr::max_bucket           19                      
system.ruby.hit_latency_hist_seqr::samples   2272163263                      
system.ruby.hit_latency_hist_seqr::mean      1.003940                      
system.ruby.hit_latency_hist_seqr::gmean     1.000945                      
system.ruby.hit_latency_hist_seqr::stdev     0.198454                      
[...]
system.ruby.L1Cache_Controller.M.Store::total       359262                      
system.ruby.L1Cache_Controller.M.L2_Replacement |        1793      0.29%      0.29% |      545879     87.51%     87.80% |       76074     12.20%    100.00% |          29      0.00%    100.00%
system.ruby.L1Cache_Controller.M.L2_Replacement::total       623775                      
system.ruby.L1Cache_Controller.M.L1_to_L2 |       12802      1.10%      1.10% |     1029966     88.58%     89.68% |      113034      9.72%     99.40% |        6920      0.60%    100.00%
system.ruby.L1Cache_Controller.M.L1_to_L2::total      1162722                      
system.ruby.L1Cache_Controller.M.Trigger_L2_to_L1D |        4862      0.99%      0.99% |      467176     95.58%     96.58% |       15230      3.12%     99.69% |        1493      0.31%    100.00%
system.ruby.L1Cache_Controller.M.Trigger_L2_to_L1D::total       488761                      
system.ruby.L1Cache_Controller.M.Trigger_L2_to_L1I |        4536     16.53%     16.53% |        5927     21.60%     38.13% |       16648     60.67%     98.81% |         327      1.19%    100.00%
system.ruby.L1Cache_Controller.M.Trigger_L2_to_L1I::total        27438                      
system.ruby.L1Cache_Controller.M.Other_GETX |         455     18.55%     18.55% |         808     32.94%     51.49% |         730     29.76%     81.25% |         460     18.75%    100.00%
system.ruby.L1Cache_Controller.M.Other_GETX::total         2453                      
system.ruby.L1Cache_Controller.M.Other_GETS |        4798     17.26%     17.26% |        7088     25.50%     42.76% |        6962     25.04%     67.80% |        8952     32.20%    100.00%
system.ruby.L1Cache_Controller.M.Other_GETS::total        27800                      
system.ruby.L1Cache_Controller.M.Merged_GETS |           5     12.50%     12.50% |          25     62.50%     75.00% |           6     15.00%     90.00% |           4     10.00%    100.00%
system.ruby.L1Cache_Controller.M.Merged_GETS::total           40                      
system.ruby.L1Cache_Controller.MM.Load   |      685559      0.73%      0.73% |    74872117     80.10%     80.83% |    17401838     18.62%     99.45% |      514407      0.55%    100.00%
system.ruby.L1Cache_Controller.MM.Load::total     93473921                      
system.ruby.L1Cache_Controller.MM.Store  |      836537      1.57%      1.57% |    39335839     73.60%     75.16% |    12704862     23.77%     98.93% |      569662      1.07%    100.00%
system.ruby.L1Cache_Controller.MM.Store::total     53446900                      
system.ruby.L1Cache_Controller.MM.L2_Replacement |        5884      0.73%      0.73% |      710086     88.32%     89.05% |       87984     10.94%     99.99% |          70      0.01%    100.00%
system.ruby.L1Cache_Controller.MM.L2_Replacement::total       804024                      
system.ruby.L1Cache_Controller.MM.L1_to_L2 |       40297      3.26%      3.26% |      970454     78.42%     81.67% |      213053     17.22%     98.89% |       13775      1.11%    100.00%
system.ruby.L1Cache_Controller.MM.L1_to_L2::total      1237579                      
system.ruby.L1Cache_Controller.MM.Trigger_L2_to_L1D |       14888      4.07%      4.07% |      240632     65.70%     69.77% |      104520     28.54%     98.31% |        6193      1.69%    100.00%
system.ruby.L1Cache_Controller.MM.Trigger_L2_to_L1D::total       366233                      
system.ruby.L1Cache_Controller.MM.Other_GETX |        7258     55.21%     55.21% |        1045      7.95%     63.16% |        4003     30.45%     93.62% |         839      6.38%    100.00%
system.ruby.L1Cache_Controller.MM.Other_GETX::total        13145                      
system.ruby.L1Cache_Controller.MM.Other_GETS |       33489     55.75%     55.75% |       12611     20.99%     76.74% |       10022     16.68%     93.42% |        3952      6.58%    100.00%
system.ruby.L1Cache_Controller.MM.Other_GETS::total        60074                      
system.ruby.L1Cache_Controller.MM.Merged_GETS |           6      8.57%      8.57% |          32     45.71%     54.29% |          21     30.00%     84.29% |          11     15.71%    100.00%
system.ruby.L1Cache_Controller.MM.Merged_GETS::total           70                      
system.ruby.L1Cache_Controller.SR.Load   |        3108      7.14%      7.14% |       27302     62.72%     69.86% |        9713     22.31%     92.18% |        3406      7.82%    100.00%
system.ruby.L1Cache_Controller.SR.Load::total        43529                      
system.ruby.L1Cache_Controller.SR.Ifetch |       22245     16.22%     16.22% |       34335     25.03%     41.25% |       52209     38.06%     79.32% |       28371     20.68%    100.00%
system.ruby.L1Cache_Controller.SR.Ifetch::total       137160                      
system.ruby.L1Cache_Controller.SR.Store  |          78     17.65%     17.65% |         107     24.21%     41.86% |         223     50.45%     92.31% |          34      7.69%    100.00%
system.ruby.L1Cache_Controller.SR.Store::total          442                      
system.ruby.L1Cache_Controller.OR.Load   |        2426     43.20%     43.20% |         303      5.40%     48.59% |        1432     25.50%     74.09% |        1455     25.91%    100.00%
system.ruby.L1Cache_Controller.OR.Load::total         5616                      
system.ruby.L1Cache_Controller.OR.Ifetch |       16993     59.61%     59.61% |        1571      5.51%     65.13% |        7145     25.07%     90.19% |        2796      9.81%    100.00%
system.ruby.L1Cache_Controller.OR.Ifetch::total        28505                      
system.ruby.L1Cache_Controller.OR.Store  |          13     30.95%     30.95% |           4      9.52%     40.48% |          21     50.00%     90.48% |           4      9.52%    100.00%
system.ruby.L1Cache_Controller.OR.Store::total           42                      
system.ruby.L1Cache_Controller.MR.Load   |        4365      0.91%      0.91% |      463709     96.35%     97.26% |       12170      2.53%     99.79% |        1023      0.21%    100.00%
system.ruby.L1Cache_Controller.MR.Load::total       481267                      
system.ruby.L1Cache_Controller.MR.Ifetch |        4536     16.53%     16.53% |        5927     21.60%     38.13% |       16648     60.67%     98.81% |         327      1.19%    100.00%
system.ruby.L1Cache_Controller.MR.Ifetch::total        27438                      
system.ruby.L1Cache_Controller.MR.Store  |         497      6.63%      6.63% |        3467     46.26%     52.90% |        3060     40.83%     93.73% |         470      6.27%    100.00%
system.ruby.L1Cache_Controller.MR.Store::total         7494                      
system.ruby.L1Cache_Controller.MMR.Load  |        7495      2.52%      2.52% |      213255     71.63%     74.14% |       74657     25.08%     99.22% |        2325      0.78%    100.00%
system.ruby.L1Cache_Controller.MMR.Load::total       297732                      
system.ruby.L1Cache_Controller.MMR.Store |        7393     10.79%     10.79% |       27377     39.97%     50.76% |       29863     43.59%     94.35% |        3868      5.65%    100.00%
system.ruby.L1Cache_Controller.MMR.Store::total        68501                      
system.ruby.L1Cache_Controller.IM.Other_GETX |           0      0.00%      0.00% |           0      0.00%      0.00% |           1    100.00%    100.00% |           0      0.00%    100.00%
system.ruby.L1Cache_Controller.IM.Other_GETX::total            1                      
system.ruby.L1Cache_Controller.IM.Ack    |       16128      1.08%      1.08% |     1347427     90.54%     91.62% |      111883      7.52%     99.14% |       12810      0.86%    100.00%
system.ruby.L1Cache_Controller.IM.Ack::total      1488248                      
system.ruby.L1Cache_Controller.IM.Data   |        2291     42.40%     42.40% |        1016     18.80%     61.21% |        1058     19.58%     80.79% |        1038     19.21%    100.00%
system.ruby.L1Cache_Controller.IM.Data::total         5403                      
system.ruby.L1Cache_Controller.IM.Exclusive_Data |        5436      1.08%      1.08% |      453408     89.85%     90.92% |       40484      8.02%     98.95% |        5321      1.05%    100.00%
system.ruby.L1Cache_Controller.IM.Exclusive_Data::total       504649                      
system.ruby.L1Cache_Controller.SM.Ack    |        5280     43.96%     43.96% |        2387     19.87%     63.83% |        2253     18.76%     82.59% |        2091     17.41%    100.00%
system.ruby.L1Cache_Controller.SM.Ack::total        12011                      
system.ruby.L1Cache_Controller.SM.Data   |        3683     36.70%     36.70% |        2465     24.56%     61.27% |        2409     24.01%     85.27% |        1478     14.73%    100.00%
system.ruby.L1Cache_Controller.SM.Data::total        10035                      
system.ruby.L1Cache_Controller.OM.Ack    |         132     13.17%     13.17% |         162     16.17%     29.34% |         588     58.68%     88.02% |         120     11.98%    100.00%
system.ruby.L1Cache_Controller.OM.Ack::total         1002                      
system.ruby.L1Cache_Controller.OM.All_acks_no_sharers |          44     13.17%     13.17% |          54     16.17%     29.34% |         196     58.68%     88.02% |          40     11.98%    100.00%
system.ruby.L1Cache_Controller.OM.All_acks_no_sharers::total          334                      
system.ruby.L1Cache_Controller.ISM.Ack   |        3051     25.11%     25.11% |        3529     29.04%     54.15% |        4219     34.72%     88.87% |        1353     11.13%    100.00%
system.ruby.L1Cache_Controller.ISM.Ack::total        12152                      
system.ruby.L1Cache_Controller.ISM.All_acks_no_sharers |        5974     38.70%     38.70% |        3481     22.55%     61.24% |        3467     22.46%     83.70% |        2516     16.30%    100.00%
system.ruby.L1Cache_Controller.ISM.All_acks_no_sharers::total        15438                      
system.ruby.L1Cache_Controller.M_W.Load  |          41      5.60%      5.60% |          73      9.97%     15.57% |         583     79.64%     95.22% |          35      4.78%    100.00%
system.ruby.L1Cache_Controller.M_W.Load::total          732                      
system.ruby.L1Cache_Controller.M_W.Store |         491     89.11%     89.11% |           9      1.63%     90.74% |          38      6.90%     97.64% |          13      2.36%    100.00%
system.ruby.L1Cache_Controller.M_W.Store::total          551                      
system.ruby.L1Cache_Controller.M_W.Ack   |        7972     11.28%     11.28% |       18185     25.74%     37.02% |       33701     47.70%     84.72% |       10792     15.28%    100.00%
system.ruby.L1Cache_Controller.M_W.Ack::total        70650                      
system.ruby.L1Cache_Controller.M_W.All_acks_no_sharers |       25433      2.48%      2.48% |      834133     81.36%     83.84% |      152393     14.86%     98.71% |       13241      1.29%    100.00%
system.ruby.L1Cache_Controller.M_W.All_acks_no_sharers::total      1025200                      
system.ruby.L1Cache_Controller.MM_W.Load |           0      0.00%      0.00% |           0      0.00%      0.00% |           2    100.00%    100.00% |           0      0.00%    100.00%
system.ruby.L1Cache_Controller.MM_W.Load::total            2                      
system.ruby.L1Cache_Controller.MM_W.Store |        1013     13.68%     13.68% |        2764     37.32%     50.99% |        2921     39.44%     90.43% |         709      9.57%    100.00%
system.ruby.L1Cache_Controller.MM_W.Store::total         7407                      
system.ruby.L1Cache_Controller.MM_W.Ack  |        2390     13.45%     13.45% |        7536     42.40%     55.85% |        5833     32.82%     88.67% |        2014     11.33%    100.00%
system.ruby.L1Cache_Controller.MM_W.Ack::total        17773                      
system.ruby.L1Cache_Controller.MM_W.All_acks_no_sharers |        5927      1.17%      1.17% |      453417     89.75%     90.92% |       40522      8.02%     98.94% |        5334      1.06%    100.00%
system.ruby.L1Cache_Controller.MM_W.All_acks_no_sharers::total       505200                      
system.ruby.L1Cache_Controller.IS.Other_GETS |           0      0.00%      0.00% |           0      0.00%      0.00% |           1     50.00%     50.00% |           1     50.00%    100.00%
system.ruby.L1Cache_Controller.IS.Other_GETS::total            2                      
system.ruby.L1Cache_Controller.IS.Ack    |       75341      2.50%      2.50% |     2485584     82.61%     85.12% |      419242     13.93%     99.05% |       28482      0.95%    100.00%
system.ruby.L1Cache_Controller.IS.Ack::total      3008649                      
system.ruby.L1Cache_Controller.IS.Shared_Ack |        7370     18.72%     18.72% |       12849     32.63%     51.35% |       12030     30.55%     81.90% |        7126     18.10%    100.00%
system.ruby.L1Cache_Controller.IS.Shared_Ack::total        39375                      
system.ruby.L1Cache_Controller.IS.Data   |        2244     15.43%     15.43% |        4548     31.28%     46.71% |        5120     35.21%     81.93% |        2628     18.07%    100.00%
system.ruby.L1Cache_Controller.IS.Data::total        14540                      
system.ruby.L1Cache_Controller.IS.Shared_Data |       11803     21.89%     21.89% |       14924     27.68%     49.57% |       19304     35.80%     85.37% |        7888     14.63%    100.00%
system.ruby.L1Cache_Controller.IS.Shared_Data::total        53919                      
system.ruby.L1Cache_Controller.IS.Exclusive_Data |       25924      2.53%      2.53% |      834142     81.32%     83.85% |      152431     14.86%     98.71% |       13254      1.29%    100.00%
system.ruby.L1Cache_Controller.IS.Exclusive_Data::total      1025751                      
system.ruby.L1Cache_Controller.SS.Load   |          69      3.34%      3.34% |         420     20.32%     23.66% |        1556     75.28%     98.94% |          22      1.06%    100.00%
system.ruby.L1Cache_Controller.SS.Load::total         2067                      
system.ruby.L1Cache_Controller.SS.Ifetch |        1259     14.52%     14.52% |        3695     42.60%     57.12% |        2500     28.83%     85.94% |        1219     14.06%    100.00%
system.ruby.L1Cache_Controller.SS.Ifetch::total         8673                      
system.ruby.L1Cache_Controller.SS.Store  |           2     15.38%     15.38% |          10     76.92%     92.31% |           1      7.69%    100.00% |           0      0.00%    100.00%
system.ruby.L1Cache_Controller.SS.Store::total           13                      
system.ruby.L1Cache_Controller.SS.Ack    |        7399     20.57%     20.57% |        8590     23.88%     44.46% |       14047     39.06%     83.51% |        5930     16.49%    100.00%
system.ruby.L1Cache_Controller.SS.Ack::total        35966                      
system.ruby.L1Cache_Controller.SS.Shared_Ack |        2024     15.04%     15.04% |        5710     42.43%     57.47% |        3813     28.33%     85.81% |        1910     14.19%    100.00%
system.ruby.L1Cache_Controller.SS.Shared_Ack::total        13457                      
system.ruby.L1Cache_Controller.SS.All_acks |       13753     20.57%     20.57% |       19402     29.01%     49.58% |       23235     34.75%     84.33% |       10480     15.67%    100.00%
system.ruby.L1Cache_Controller.SS.All_acks::total        66870                      
system.ruby.L1Cache_Controller.SS.All_acks_no_sharers |         294     18.50%     18.50% |          70      4.41%     22.91% |        1189     74.83%     97.73% |          36      2.27%    100.00%
system.ruby.L1Cache_Controller.SS.All_acks_no_sharers::total         1589                      
system.ruby.L1Cache_Controller.OI.Load   |           0      0.00%      0.00% |           0      0.00%      0.00% |          11    100.00%    100.00% |           0      0.00%    100.00%
system.ruby.L1Cache_Controller.OI.Load::total           11                      
system.ruby.L1Cache_Controller.OI.Ifetch |           4     36.36%     36.36% |           1      9.09%     45.45% |           6     54.55%    100.00% |           0      0.00%    100.00%
system.ruby.L1Cache_Controller.OI.Ifetch::total           11                      
system.ruby.L1Cache_Controller.OI.Writeback_Ack |        1932     25.97%     25.97% |        3621     48.67%     74.64% |        1828     24.57%     99.21% |          59      0.79%    100.00%
system.ruby.L1Cache_Controller.OI.Writeback_Ack::total         7440                      
system.ruby.L1Cache_Controller.MI.Load   |          58      1.79%      1.79% |        2939     90.60%     92.39% |         247      7.61%    100.00% |           0      0.00%    100.00%
system.ruby.L1Cache_Controller.MI.Load::total         3244                      
system.ruby.L1Cache_Controller.MI.Ifetch |           0      0.00%      0.00% |          10     30.30%     30.30% |          23     69.70%    100.00% |           0      0.00%    100.00%
system.ruby.L1Cache_Controller.MI.Ifetch::total           33                      
system.ruby.L1Cache_Controller.MI.Store  |          17      3.56%      3.56% |         328     68.62%     72.18% |         133     27.82%    100.00% |           0      0.00%    100.00%
system.ruby.L1Cache_Controller.MI.Store::total          478                      
system.ruby.L1Cache_Controller.MI.Writeback_Ack |        7677      0.54%      0.54% |     1255965     87.97%     88.50% |      164058     11.49%     99.99% |          99      0.01%    100.00%
system.ruby.L1Cache_Controller.MI.Writeback_Ack::total      1427799                      
system.ruby.L1Cache_Controller.ST.Complete_L2_to_L1 |       25431     14.04%     14.04% |       61744     34.09%     48.13% |       62145     34.31%     82.44% |       31811     17.56%    100.00%
system.ruby.L1Cache_Controller.ST.Complete_L2_to_L1::total       181131                      
system.ruby.L1Cache_Controller.OT.Complete_L2_to_L1 |       19432     56.88%     56.88% |        1878      5.50%     62.38% |        8598     25.17%     87.55% |        4255     12.45%    100.00%
system.ruby.L1Cache_Controller.OT.Complete_L2_to_L1::total        34163                      
system.ruby.L1Cache_Controller.MT.Load   |           0      0.00%      0.00% |           5    100.00%    100.00% |           0      0.00%    100.00% |           0      0.00%    100.00%
system.ruby.L1Cache_Controller.MT.Load::total            5                      
system.ruby.L1Cache_Controller.MT.Store  |           0      0.00%      0.00% |          16    100.00%    100.00% |           0      0.00%    100.00% |           0      0.00%    100.00%
system.ruby.L1Cache_Controller.MT.Store::total           16                      
system.ruby.L1Cache_Controller.MT.Complete_L2_to_L1 |        9398      1.82%      1.82% |      473103     91.65%     93.47% |       31878      6.18%     99.65% |        1820      0.35%    100.00%
system.ruby.L1Cache_Controller.MT.Complete_L2_to_L1::total       516199                      
system.ruby.L1Cache_Controller.MMT.Load  |           0      0.00%      0.00% |           8    100.00%    100.00% |           0      0.00%    100.00% |           0      0.00%    100.00%
system.ruby.L1Cache_Controller.MMT.Load::total            8                      
system.ruby.L1Cache_Controller.MMT.Store |           0      0.00%      0.00% |         269    100.00%    100.00% |           0      0.00%    100.00% |           0      0.00%    100.00%
system.ruby.L1Cache_Controller.MMT.Store::total          269                      
system.ruby.L1Cache_Controller.MMT.Complete_L2_to_L1 |       14888      4.07%      4.07% |      240632     65.70%     69.77% |      104520     28.54%     98.31% |        6193      1.69%    100.00%
system.ruby.L1Cache_Controller.MMT.Complete_L2_to_L1::total       366233                      

---------- End Simulation Statistics   ----------
