
---------- Begin Simulation Statistics ----------
sim_seconds                                  2.361941                       # Number of seconds simulated
sim_ticks                                2361941069000                       # Number of ticks simulated
final_tick                               54795383859501                       # Number of ticks from beginning of simulation (restored from checkpoints and never reset)
sim_freq                                 1000000000000                       # Frequency of simulated ticks
host_inst_rate                                 145342                       # Simulator instruction rate (inst/s)
host_op_rate                                   263460                       # Simulator op (including micro ops) rate (op/s)
host_tick_rate                              261462491                       # Simulator tick rate (ticks/s)
host_mem_usage                                1998900                       # Number of bytes of host memory used
host_seconds                                  9033.58                       # Real time elapsed on the host
sim_insts                                  1312960641                       # Number of instructions simulated
sim_ops                                    2379983478                       # Number of ops (including micro ops) simulated
system.voltage_domain.voltage                       1                       # Voltage in Volts
system.clk_domain.clock                          1000                       # Clock period in ticks
system.mem_ctrls.bytes_read::ruby.dir_cntrl0     98836032                       # Number of bytes read from this memory
system.mem_ctrls.bytes_read::total           98836032                       # Number of bytes read from this memory
system.mem_ctrls.bytes_written::ruby.dir_cntrl0     46717120                       # Number of bytes written to this memory
system.mem_ctrls.bytes_written::total        46717120                       # Number of bytes written to this memory
system.mem_ctrls.num_reads::ruby.dir_cntrl0      1544313                       # Number of read requests responded to by this memory
system.mem_ctrls.num_reads::total             1544313                       # Number of read requests responded to by this memory
system.mem_ctrls.num_writes::ruby.dir_cntrl0       729955                       # Number of write requests responded to by this memory
system.mem_ctrls.num_writes::total             729955                       # Number of write requests responded to by this memory
system.mem_ctrls.bw_read::ruby.dir_cntrl0     41845257                       # Total read bandwidth from this memory (bytes/s)
system.mem_ctrls.bw_read::total              41845257                       # Total read bandwidth from this memory (bytes/s)
system.mem_ctrls.bw_write::ruby.dir_cntrl0     19779122                       # Write bandwidth from this memory (bytes/s)
system.mem_ctrls.bw_write::total             19779122                       # Write bandwidth from this memory (bytes/s)
system.mem_ctrls.bw_total::ruby.dir_cntrl0     61624379                       # Total bandwidth to/from this memory (bytes/s)
system.mem_ctrls.bw_total::total             61624379                       # Total bandwidth to/from this memory (bytes/s)
system.mem_ctrls.readReqs                     1544313                       # Number of read requests accepted
system.mem_ctrls.writeReqs                     729955                       # Number of write requests accepted
system.mem_ctrls.readBursts                   1544313                       # Number of DRAM read bursts, including those serviced by the write queue
system.mem_ctrls.writeBursts                   729955                       # Number of DRAM write bursts, including those merged in the write queue
system.mem_ctrls.bytesReadDRAM               98816832                       # Total number of bytes read from DRAM
system.mem_ctrls.bytesReadWrQ                   19200                       # Total number of bytes read from write queue
system.mem_ctrls.bytesWritten                46717184                       # Total number of bytes written to DRAM
system.mem_ctrls.bytesReadSys                98836032                       # Total read bytes from the system interface side
system.mem_ctrls.bytesWrittenSys             46717120                       # Total written bytes from the system interface side
system.mem_ctrls.servicedByWrQ                    300                       # Number of DRAM read bursts serviced by the write queue
system.mem_ctrls.mergedWrBursts                     0                       # Number of DRAM write bursts merged with an existing one
system.mem_ctrls.neitherReadNorWriteReqs            0                       # Number of requests that are neither read nor write
system.mem_ctrls.perBankRdBursts::0            101507                       # Per bank write bursts
system.mem_ctrls.perBankRdBursts::1            102189                       # Per bank write bursts
system.mem_ctrls.perBankRdBursts::2             97385                       # Per bank write bursts
system.mem_ctrls.perBankRdBursts::3             96129                       # Per bank write bursts
system.mem_ctrls.perBankRdBursts::4             96521                       # Per bank write bursts
system.mem_ctrls.perBankRdBursts::5             95118                       # Per bank write bursts
system.mem_ctrls.perBankRdBursts::6             94375                       # Per bank write bursts
system.mem_ctrls.perBankRdBursts::7             93884                       # Per bank write bursts
system.mem_ctrls.perBankRdBursts::8             96451                       # Per bank write bursts
system.mem_ctrls.perBankRdBursts::9             93787                       # Per bank write bursts
system.mem_ctrls.perBankRdBursts::10            96556                       # Per bank write bursts
system.mem_ctrls.perBankRdBursts::11            96161                       # Per bank write bursts
system.mem_ctrls.perBankRdBursts::12            93877                       # Per bank write bursts
system.mem_ctrls.perBankRdBursts::13            96117                       # Per bank write bursts
system.mem_ctrls.perBankRdBursts::14            96875                       # Per bank write bursts
system.mem_ctrls.perBankRdBursts::15            97081                       # Per bank write bursts
system.mem_ctrls.perBankWrBursts::0             47549                       # Per bank write bursts
system.mem_ctrls.perBankWrBursts::1             47942                       # Per bank write bursts
system.mem_ctrls.perBankWrBursts::2             46377                       # Per bank write bursts
system.mem_ctrls.perBankWrBursts::3             45461                       # Per bank write bursts
system.mem_ctrls.perBankWrBursts::4             45602                       # Per bank write bursts
system.mem_ctrls.perBankWrBursts::5             44985                       # Per bank write bursts
system.mem_ctrls.perBankWrBursts::6             44975                       # Per bank write bursts
system.mem_ctrls.perBankWrBursts::7             44921                       # Per bank write bursts
system.mem_ctrls.perBankWrBursts::8             45461                       # Per bank write bursts
system.mem_ctrls.perBankWrBursts::9             44239                       # Per bank write bursts
system.mem_ctrls.perBankWrBursts::10            45834                       # Per bank write bursts
system.mem_ctrls.perBankWrBursts::11            45391                       # Per bank write bursts
system.mem_ctrls.perBankWrBursts::12            44461                       # Per bank write bursts
system.mem_ctrls.perBankWrBursts::13            45127                       # Per bank write bursts
system.mem_ctrls.perBankWrBursts::14            45619                       # Per bank write bursts
system.mem_ctrls.perBankWrBursts::15            46012                       # Per bank write bursts
system.mem_ctrls.numRdRetry                         0                       # Number of times read queue was full causing retry
system.mem_ctrls.numWrRetry                         0                       # Number of times write queue was full causing retry
system.mem_ctrls.totGap                  2361941061000                       # Total gap between requests
system.mem_ctrls.readPktSize::0                     0                       # Read request sizes (log2)
system.mem_ctrls.readPktSize::1                     0                       # Read request sizes (log2)
system.mem_ctrls.readPktSize::2                     0                       # Read request sizes (log2)
system.mem_ctrls.readPktSize::3                     0                       # Read request sizes (log2)
system.mem_ctrls.readPktSize::4                     0                       # Read request sizes (log2)
system.mem_ctrls.readPktSize::5                     0                       # Read request sizes (log2)
system.mem_ctrls.readPktSize::6               1544313                       # Read request sizes (log2)
system.mem_ctrls.writePktSize::0                    0                       # Write request sizes (log2)
system.mem_ctrls.writePktSize::1                    0                       # Write request sizes (log2)
system.mem_ctrls.writePktSize::2                    0                       # Write request sizes (log2)
system.mem_ctrls.writePktSize::3                    0                       # Write request sizes (log2)
system.mem_ctrls.writePktSize::4                    0                       # Write request sizes (log2)
system.mem_ctrls.writePktSize::5                    0                       # Write request sizes (log2)
system.mem_ctrls.writePktSize::6               729955                       # Write request sizes (log2)
system.mem_ctrls.rdQLenPdf::0                 1542345                       # What read queue length does an incoming req see
system.mem_ctrls.rdQLenPdf::1                    1650                       # What read queue length does an incoming req see
system.mem_ctrls.rdQLenPdf::2                      18                       # What read queue length does an incoming req see
system.mem_ctrls.rdQLenPdf::3                       0                       # What read queue length does an incoming req see
system.mem_ctrls.rdQLenPdf::4                       0                       # What read queue length does an incoming req see
system.mem_ctrls.rdQLenPdf::5                       0                       # What read queue length does an incoming req see
system.mem_ctrls.rdQLenPdf::6                       0                       # What read queue length does an incoming req see
system.mem_ctrls.rdQLenPdf::7                       0                       # What read queue length does an incoming req see
system.mem_ctrls.rdQLenPdf::8                       0                       # What read queue length does an incoming req see
system.mem_ctrls.rdQLenPdf::9                       0                       # What read queue length does an incoming req see
system.mem_ctrls.rdQLenPdf::10                      0                       # What read queue length does an incoming req see
system.mem_ctrls.rdQLenPdf::11                      0                       # What read queue length does an incoming req see
system.mem_ctrls.rdQLenPdf::12                      0                       # What read queue length does an incoming req see
system.mem_ctrls.rdQLenPdf::13                      0                       # What read queue length does an incoming req see
system.mem_ctrls.rdQLenPdf::14                      0                       # What read queue length does an incoming req see
system.mem_ctrls.rdQLenPdf::15                      0                       # What read queue length does an incoming req see
system.mem_ctrls.rdQLenPdf::16                      0                       # What read queue length does an incoming req see
system.mem_ctrls.rdQLenPdf::17                      0                       # What read queue length does an incoming req see
system.mem_ctrls.rdQLenPdf::18                      0                       # What read queue length does an incoming req see
system.mem_ctrls.rdQLenPdf::19                      0                       # What read queue length does an incoming req see
system.mem_ctrls.rdQLenPdf::20                      0                       # What read queue length does an incoming req see
system.mem_ctrls.rdQLenPdf::21                      0                       # What read queue length does an incoming req see
system.mem_ctrls.rdQLenPdf::22                      0                       # What read queue length does an incoming req see
system.mem_ctrls.rdQLenPdf::23                      0                       # What read queue length does an incoming req see
system.mem_ctrls.rdQLenPdf::24                      0                       # What read queue length does an incoming req see
system.mem_ctrls.rdQLenPdf::25                      0                       # What read queue length does an incoming req see
system.mem_ctrls.rdQLenPdf::26                      0                       # What read queue length does an incoming req see
system.mem_ctrls.rdQLenPdf::27                      0                       # What read queue length does an incoming req see
system.mem_ctrls.rdQLenPdf::28                      0                       # What read queue length does an incoming req see
system.mem_ctrls.rdQLenPdf::29                      0                       # What read queue length does an incoming req see
system.mem_ctrls.rdQLenPdf::30                      0                       # What read queue length does an incoming req see
system.mem_ctrls.rdQLenPdf::31                      0                       # What read queue length does an incoming req see
system.mem_ctrls.wrQLenPdf::0                       0                       # What write queue length does an incoming req see
system.mem_ctrls.wrQLenPdf::1                       0                       # What write queue length does an incoming req see
system.mem_ctrls.wrQLenPdf::2                       0                       # What write queue length does an incoming req see
system.mem_ctrls.wrQLenPdf::3                       0                       # What write queue length does an incoming req see
system.mem_ctrls.wrQLenPdf::4                       0                       # What write queue length does an incoming req see
system.mem_ctrls.wrQLenPdf::5                       0                       # What write queue length does an incoming req see
system.mem_ctrls.wrQLenPdf::6                       0                       # What write queue length does an incoming req see
system.mem_ctrls.wrQLenPdf::7                       0                       # What write queue length does an incoming req see
system.mem_ctrls.wrQLenPdf::8                       0                       # What write queue length does an incoming req see
system.mem_ctrls.wrQLenPdf::9                       0                       # What write queue length does an incoming req see
system.mem_ctrls.wrQLenPdf::10                      0                       # What write queue length does an incoming req see
system.mem_ctrls.wrQLenPdf::11                      0                       # What write queue length does an incoming req see
system.mem_ctrls.wrQLenPdf::12                      0                       # What write queue length does an incoming req see
system.mem_ctrls.wrQLenPdf::13                      0                       # What write queue length does an incoming req see
system.mem_ctrls.wrQLenPdf::14                      0                       # What write queue length does an incoming req see
system.mem_ctrls.wrQLenPdf::15                  22794                       # What write queue length does an incoming req see
system.mem_ctrls.wrQLenPdf::16                  23857                       # What write queue length does an incoming req see
system.mem_ctrls.wrQLenPdf::17                  35487                       # What write queue length does an incoming req see
system.mem_ctrls.wrQLenPdf::18                  43156                       # What write queue length does an incoming req see
system.mem_ctrls.wrQLenPdf::19                  43405                       # What write queue length does an incoming req see
system.mem_ctrls.wrQLenPdf::20                  43388                       # What write queue length does an incoming req see
system.mem_ctrls.wrQLenPdf::21                  43530                       # What write queue length does an incoming req see
system.mem_ctrls.wrQLenPdf::22                  43673                       # What write queue length does an incoming req see
system.mem_ctrls.wrQLenPdf::23                  43765                       # What write queue length does an incoming req see
system.mem_ctrls.wrQLenPdf::24                  43671                       # What write queue length does an incoming req see
system.mem_ctrls.wrQLenPdf::25                  43518                       # What write queue length does an incoming req see
system.mem_ctrls.wrQLenPdf::26                  43205                       # What write queue length does an incoming req see
system.mem_ctrls.wrQLenPdf::27                  42909                       # What write queue length does an incoming req see
system.mem_ctrls.wrQLenPdf::28                  42778                       # What write queue length does an incoming req see
system.mem_ctrls.wrQLenPdf::29                  42755                       # What write queue length does an incoming req see
system.mem_ctrls.wrQLenPdf::30                  42673                       # What write queue length does an incoming req see
system.mem_ctrls.wrQLenPdf::31                  42657                       # What write queue length does an incoming req see
system.mem_ctrls.wrQLenPdf::32                  42652                       # What write queue length does an incoming req see
system.mem_ctrls.wrQLenPdf::33                     77                       # What write queue length does an incoming req see
system.mem_ctrls.wrQLenPdf::34                      2                       # What write queue length does an incoming req see
system.mem_ctrls.wrQLenPdf::35                      1                       # What write queue length does an incoming req see
system.mem_ctrls.wrQLenPdf::36                      1                       # What write queue length does an incoming req see
system.mem_ctrls.wrQLenPdf::37                      1                       # What write queue length does an incoming req see
system.mem_ctrls.wrQLenPdf::38                      0                       # What write queue length does an incoming req see
system.mem_ctrls.wrQLenPdf::39                      0                       # What write queue length does an incoming req see
system.mem_ctrls.wrQLenPdf::40                      0                       # What write queue length does an incoming req see
system.mem_ctrls.wrQLenPdf::41                      0                       # What write queue length does an incoming req see
system.mem_ctrls.wrQLenPdf::42                      0                       # What write queue length does an incoming req see
system.mem_ctrls.wrQLenPdf::43                      0                       # What write queue length does an incoming req see
system.mem_ctrls.wrQLenPdf::44                      0                       # What write queue length does an incoming req see
system.mem_ctrls.wrQLenPdf::45                      0                       # What write queue length does an incoming req see
system.mem_ctrls.wrQLenPdf::46                      0                       # What write queue length does an incoming req see
system.mem_ctrls.wrQLenPdf::47                      0                       # What write queue length does an incoming req see
system.mem_ctrls.wrQLenPdf::48                      0                       # What write queue length does an incoming req see
system.mem_ctrls.wrQLenPdf::49                      0                       # What write queue length does an incoming req see
system.mem_ctrls.wrQLenPdf::50                      0                       # What write queue length does an incoming req see
system.mem_ctrls.wrQLenPdf::51                      0                       # What write queue length does an incoming req see
system.mem_ctrls.wrQLenPdf::52                      0                       # What write queue length does an incoming req see
system.mem_ctrls.wrQLenPdf::53                      0                       # What write queue length does an incoming req see
system.mem_ctrls.wrQLenPdf::54                      0                       # What write queue length does an incoming req see
system.mem_ctrls.wrQLenPdf::55                      0                       # What write queue length does an incoming req see
system.mem_ctrls.wrQLenPdf::56                      0                       # What write queue length does an incoming req see
system.mem_ctrls.wrQLenPdf::57                      0                       # What write queue length does an incoming req see
system.mem_ctrls.wrQLenPdf::58                      0                       # What write queue length does an incoming req see
system.mem_ctrls.wrQLenPdf::59                      0                       # What write queue length does an incoming req see
system.mem_ctrls.wrQLenPdf::60                      0                       # What write queue length does an incoming req see
system.mem_ctrls.wrQLenPdf::61                      0                       # What write queue length does an incoming req see
system.mem_ctrls.wrQLenPdf::62                      0                       # What write queue length does an incoming req see
system.mem_ctrls.wrQLenPdf::63                      0                       # What write queue length does an incoming req see
system.mem_ctrls.bytesPerActivate::samples       828308                       # Bytes accessed per row activation
system.mem_ctrls.bytesPerActivate::mean    175.700517                       # Bytes accessed per row activation
system.mem_ctrls.bytesPerActivate::gmean   117.379733                       # Bytes accessed per row activation
system.mem_ctrls.bytesPerActivate::stdev   212.378652                       # Bytes accessed per row activation
system.mem_ctrls.bytesPerActivate::0-127       453214     54.72%     54.72% # Bytes accessed per row activation
system.mem_ctrls.bytesPerActivate::128-255       190992     23.06%     77.77% # Bytes accessed per row activation
system.mem_ctrls.bytesPerActivate::256-383       109746     13.25%     91.02% # Bytes accessed per row activation
system.mem_ctrls.bytesPerActivate::384-511        14888      1.80%     92.82% # Bytes accessed per row activation
system.mem_ctrls.bytesPerActivate::512-639        10772      1.30%     94.12% # Bytes accessed per row activation
system.mem_ctrls.bytesPerActivate::640-767         8508      1.03%     95.15% # Bytes accessed per row activation
system.mem_ctrls.bytesPerActivate::768-895         6999      0.84%     95.99% # Bytes accessed per row activation
system.mem_ctrls.bytesPerActivate::896-1023         5740      0.69%     96.69% # Bytes accessed per row activation
system.mem_ctrls.bytesPerActivate::1024-1151        27449      3.31%    100.00% # Bytes accessed per row activation
system.mem_ctrls.bytesPerActivate::total       828308                       # Bytes accessed per row activation
system.mem_ctrls.rdPerTurnAround::samples        42651                       # Reads before turning the bus around for writes
system.mem_ctrls.rdPerTurnAround::mean      36.201777                       # Reads before turning the bus around for writes
system.mem_ctrls.rdPerTurnAround::stdev     50.578388                       # Reads before turning the bus around for writes
system.mem_ctrls.rdPerTurnAround::0-255         42412     99.44%     99.44% # Reads before turning the bus around for writes
system.mem_ctrls.rdPerTurnAround::256-511          208      0.49%     99.93% # Reads before turning the bus around for writes
system.mem_ctrls.rdPerTurnAround::512-767           21      0.05%     99.98% # Reads before turning the bus around for writes
system.mem_ctrls.rdPerTurnAround::768-1023            1      0.00%     99.98% # Reads before turning the bus around for writes
system.mem_ctrls.rdPerTurnAround::1024-1279            1      0.00%     99.98% # Reads before turning the bus around for writes
system.mem_ctrls.rdPerTurnAround::1280-1535            1      0.00%     99.98% # Reads before turning the bus around for writes
system.mem_ctrls.rdPerTurnAround::1792-2047            1      0.00%     99.99% # Reads before turning the bus around for writes
system.mem_ctrls.rdPerTurnAround::2048-2303            4      0.01%    100.00% # Reads before turning the bus around for writes
system.mem_ctrls.rdPerTurnAround::3584-3839            1      0.00%    100.00% # Reads before turning the bus around for writes
system.mem_ctrls.rdPerTurnAround::4096-4351            1      0.00%    100.00% # Reads before turning the bus around for writes
system.mem_ctrls.rdPerTurnAround::total         42651                       # Reads before turning the bus around for writes
system.mem_ctrls.wrPerTurnAround::samples        42651                       # Writes before turning the bus around for reads
system.mem_ctrls.wrPerTurnAround::mean      17.114628                       # Writes before turning the bus around for reads
system.mem_ctrls.wrPerTurnAround::gmean     17.083869                       # Writes before turning the bus around for reads
system.mem_ctrls.wrPerTurnAround::stdev      1.028145                       # Writes before turning the bus around for reads
system.mem_ctrls.wrPerTurnAround::16            18841     44.17%     44.17% # Writes before turning the bus around for reads
system.mem_ctrls.wrPerTurnAround::17              920      2.16%     46.33% # Writes before turning the bus around for reads
system.mem_ctrls.wrPerTurnAround::18            22311     52.31%     98.64% # Writes before turning the bus around for reads
system.mem_ctrls.wrPerTurnAround::19              459      1.08%     99.72% # Writes before turning the bus around for reads
system.mem_ctrls.wrPerTurnAround::20               67      0.16%     99.88% # Writes before turning the bus around for reads
system.mem_ctrls.wrPerTurnAround::21               27      0.06%     99.94% # Writes before turning the bus around for reads
system.mem_ctrls.wrPerTurnAround::22                8      0.02%     99.96% # Writes before turning the bus around for reads
system.mem_ctrls.wrPerTurnAround::23                7      0.02%     99.97% # Writes before turning the bus around for reads
system.mem_ctrls.wrPerTurnAround::24                2      0.00%     99.98% # Writes before turning the bus around for reads
system.mem_ctrls.wrPerTurnAround::25                2      0.00%     99.98% # Writes before turning the bus around for reads
system.mem_ctrls.wrPerTurnAround::26                2      0.00%     99.99% # Writes before turning the bus around for reads
system.mem_ctrls.wrPerTurnAround::27                1      0.00%     99.99% # Writes before turning the bus around for reads
system.mem_ctrls.wrPerTurnAround::29                2      0.00%    100.00% # Writes before turning the bus around for reads
system.mem_ctrls.wrPerTurnAround::30                1      0.00%    100.00% # Writes before turning the bus around for reads
system.mem_ctrls.wrPerTurnAround::32                1      0.00%    100.00% # Writes before turning the bus around for reads
system.mem_ctrls.wrPerTurnAround::total         42651                       # Writes before turning the bus around for reads
system.mem_ctrls.totQLat                  12236334497                       # Total ticks spent queuing
system.mem_ctrls.totMemAccLat             41186578247                       # Total ticks spent from burst creation until serviced by the DRAM
system.mem_ctrls.totBusLat                 7720065000                       # Total ticks spent in databus transfers
system.mem_ctrls.avgQLat                      7925.02                       # Average queueing delay per DRAM burst
system.mem_ctrls.avgBusLat                    5000.00                       # Average bus latency per DRAM burst
system.mem_ctrls.avgMemAccLat                26675.02                       # Average memory access latency per DRAM burst
system.mem_ctrls.avgRdBW                        41.84                       # Average DRAM read bandwidth in MiByte/s
system.mem_ctrls.avgWrBW                        19.78                       # Average achieved write bandwidth in MiByte/s
system.mem_ctrls.avgRdBWSys                     41.85                       # Average system read bandwidth in MiByte/s
system.mem_ctrls.avgWrBWSys                     19.78                       # Average system write bandwidth in MiByte/s
system.mem_ctrls.peakBW                      12800.00                       # Theoretical peak bandwidth in MiByte/s
system.mem_ctrls.busUtil                         0.48                       # Data bus utilization in percentage
system.mem_ctrls.busUtilRead                     0.33                       # Data bus utilization in percentage for reads
system.mem_ctrls.busUtilWrite                    0.15                       # Data bus utilization in percentage for writes
system.mem_ctrls.avgRdQLen                       1.00                       # Average read queue length when enqueuing
system.mem_ctrls.avgWrQLen                      24.63                       # Average write queue length when enqueuing
system.mem_ctrls.readRowHits                  1221182                       # Number of row buffer hits during reads
system.mem_ctrls.writeRowHits                  224479                       # Number of row buffer hits during writes
system.mem_ctrls.readRowHitRate                 79.09                       # Row buffer hit rate for reads
system.mem_ctrls.writeRowHitRate                30.75                       # Row buffer hit rate for writes
system.mem_ctrls.avgGap                    1038550.01                       # Average gap between requests
system.mem_ctrls.pageHitRate                    63.57                       # Row buffer hit rate, read and write combined
system.mem_ctrls_0.actEnergy               3183606720                       # Energy for activate commands per rank (pJ)
system.mem_ctrls_0.preEnergy               1737087000                       # Energy for precharge commands per rank (pJ)
system.mem_ctrls_0.readEnergy              6290949600                       # Energy for read commands per rank (pJ)
system.mem_ctrls_0.writeEnergy             2396342880                       # Energy for write commands per rank (pJ)
system.mem_ctrls_0.refreshEnergy         155074692240                       # Energy for refresh commands per rank (pJ)
system.mem_ctrls_0.actBackEnergy         324000445950                       # Energy for active background per rank (pJ)
system.mem_ctrls_0.preBackEnergy         1140341294250                       # Energy for precharge background per rank (pJ)
system.mem_ctrls_0.totalEnergy           1633024418640                       # Total energy per rank (pJ)
system.mem_ctrls_0.averagePower            687.805363                       # Core power per rank (mW)
system.mem_ctrls_0.memoryStateTime::IDLE 1890004120000                       # Time in different power states
system.mem_ctrls_0.memoryStateTime::REF   78870480000                       # Time in different power states
system.mem_ctrls_0.memoryStateTime::PRE_PDN            0                       # Time in different power states
system.mem_ctrls_0.memoryStateTime::ACT  393066559500                       # Time in different power states
system.mem_ctrls_0.memoryStateTime::ACT_PDN            0                       # Time in different power states
system.mem_ctrls_1.actEnergy               3163519800                       # Energy for activate commands per rank (pJ)
system.mem_ctrls_1.preEnergy               1726126875                       # Energy for precharge commands per rank (pJ)
system.mem_ctrls_1.readEnergy              6208519200                       # Energy for read commands per rank (pJ)
system.mem_ctrls_1.writeEnergy             2364876000                       # Energy for write commands per rank (pJ)
system.mem_ctrls_1.refreshEnergy         155074692240                       # Energy for refresh commands per rank (pJ)
system.mem_ctrls_1.actBackEnergy         319930437330                       # Energy for active background per rank (pJ)
system.mem_ctrls_1.preBackEnergy         1143911477250                       # Energy for precharge background per rank (pJ)
system.mem_ctrls_1.totalEnergy           1632379648695                       # Total energy per rank (pJ)
system.mem_ctrls_1.averagePower            687.533796                       # Core power per rank (mW)
system.mem_ctrls_1.memoryStateTime::IDLE 1895536334000                       # Time in different power states
system.mem_ctrls_1.memoryStateTime::REF   78870480000                       # Time in different power states
system.mem_ctrls_1.memoryStateTime::PRE_PDN            0                       # Time in different power states
system.mem_ctrls_1.memoryStateTime::ACT  387536551000                       # Time in different power states
system.mem_ctrls_1.memoryStateTime::ACT_PDN            0                       # Time in different power states
system.cpu_voltage_domain.voltage                   1                       # Voltage in Volts
system.cpu_clk_domain.clock                       500                       # Clock period in ticks
system.cpu0.apic_clk_domain.clock                8000                       # Clock period in ticks
system.cpu0.numCycles                      4724563783                       # number of cpu cycles simulated
system.cpu0.numWorkItemsStarted                     0                       # number of work items this cpu started
system.cpu0.numWorkItemsCompleted                   0                       # number of work items this cpu completed
system.cpu0.kern.inst.arm                           0                       # number of arm instructions executed
system.cpu0.kern.inst.quiesce                       0                       # number of quiesce instructions executed
system.cpu0.committedInsts                    2183814                       # Number of instructions committed
system.cpu0.committedOps                      4710688                       # Number of ops (including micro ops) committed
system.cpu0.num_int_alu_accesses              4612464                       # Number of integer alu accesses
system.cpu0.num_fp_alu_accesses                    39                       # Number of float alu accesses
system.cpu0.num_func_calls                     132412                       # number of times a function call or return occured
system.cpu0.num_conditional_control_insts       348569                       # number of instructions that are conditional controls
system.cpu0.num_int_insts                     4612464                       # number of integer instructions
system.cpu0.num_fp_insts                           39                       # number of float instructions
system.cpu0.num_int_register_reads            9231044                       # number of times the integer registers were read
system.cpu0.num_int_register_writes           3805423                       # number of times the integer registers were written
system.cpu0.num_fp_register_reads                  63                       # number of times the floating registers were read
system.cpu0.num_fp_register_writes                 31                       # number of times the floating registers were written
system.cpu0.num_cc_register_reads             2780748                       # number of times the CC registers were read
system.cpu0.num_cc_register_writes            1453419                       # number of times the CC registers were written
system.cpu0.num_mem_refs                      1061646                       # number of memory refs
system.cpu0.num_load_insts                     656580                       # Number of load instructions
system.cpu0.num_store_insts                    405066                       # Number of store instructions
system.cpu0.num_idle_cycles              4715253431.752209                       # Number of idle cycles
system.cpu0.num_busy_cycles              9310351.247791                       # Number of busy cycles
system.cpu0.not_idle_fraction                0.001971                       # Percentage of non-idle cycles
system.cpu0.idle_fraction                    0.998029                       # Percentage of idle cycles
system.cpu0.Branches                           521275                       # Number of branches fetched
system.cpu0.op_class::No_OpClass                76328      1.62%      1.62% # Class of executed instruction
system.cpu0.op_class::IntAlu                  3539162     75.13%     76.75% # Class of executed instruction
system.cpu0.op_class::IntMult                    8044      0.17%     76.92% # Class of executed instruction
system.cpu0.op_class::IntDiv                    25500      0.54%     77.46% # Class of executed instruction
system.cpu0.op_class::FloatAdd                     30      0.00%     77.46% # Class of executed instruction
system.cpu0.op_class::FloatCmp                      0      0.00%     77.46% # Class of executed instruction
system.cpu0.op_class::FloatCvt                      0      0.00%     77.46% # Class of executed instruction
system.cpu0.op_class::FloatMult                     0      0.00%     77.46% # Class of executed instruction
system.cpu0.op_class::FloatDiv                      0      0.00%     77.46% # Class of executed instruction
system.cpu0.op_class::FloatSqrt                     0      0.00%     77.46% # Class of executed instruction
system.cpu0.op_class::SimdAdd                       0      0.00%     77.46% # Class of executed instruction
system.cpu0.op_class::SimdAddAcc                    0      0.00%     77.46% # Class of executed instruction
system.cpu0.op_class::SimdAlu                       0      0.00%     77.46% # Class of executed instruction
system.cpu0.op_class::SimdCmp                       0      0.00%     77.46% # Class of executed instruction
system.cpu0.op_class::SimdCvt                       0      0.00%     77.46% # Class of executed instruction
system.cpu0.op_class::SimdMisc                      0      0.00%     77.46% # Class of executed instruction
system.cpu0.op_class::SimdMult                      0      0.00%     77.46% # Class of executed instruction
system.cpu0.op_class::SimdMultAcc                   0      0.00%     77.46% # Class of executed instruction
system.cpu0.op_class::SimdShift                     0      0.00%     77.46% # Class of executed instruction
system.cpu0.op_class::SimdShiftAcc                  0      0.00%     77.46% # Class of executed instruction
system.cpu0.op_class::SimdSqrt                      0      0.00%     77.46% # Class of executed instruction
system.cpu0.op_class::SimdFloatAdd                  0      0.00%     77.46% # Class of executed instruction
system.cpu0.op_class::SimdFloatAlu                  0      0.00%     77.46% # Class of executed instruction
system.cpu0.op_class::SimdFloatCmp                  0      0.00%     77.46% # Class of executed instruction
system.cpu0.op_class::SimdFloatCvt                  0      0.00%     77.46% # Class of executed instruction
system.cpu0.op_class::SimdFloatDiv                  0      0.00%     77.46% # Class of executed instruction
system.cpu0.op_class::SimdFloatMisc                 0      0.00%     77.46% # Class of executed instruction
system.cpu0.op_class::SimdFloatMult                 0      0.00%     77.46% # Class of executed instruction
system.cpu0.op_class::SimdFloatMultAcc              0      0.00%     77.46% # Class of executed instruction
system.cpu0.op_class::SimdFloatSqrt                 0      0.00%     77.46% # Class of executed instruction
system.cpu0.op_class::MemRead                  656580     13.94%     91.40% # Class of executed instruction
system.cpu0.op_class::MemWrite                 405066      8.60%    100.00% # Class of executed instruction
system.cpu0.op_class::IprAccess                     0      0.00%    100.00% # Class of executed instruction
system.cpu0.op_class::InstPrefetch                  0      0.00%    100.00% # Class of executed instruction
system.cpu0.op_class::total                   4710710                       # Class of executed instruction
system.cpu1.apic_clk_domain.clock                8000                       # Clock period in ticks
system.cpu1.numCycles                      4725820995                       # number of cpu cycles simulated
system.cpu1.numWorkItemsStarted                     0                       # number of work items this cpu started
system.cpu1.numWorkItemsCompleted                   0                       # number of work items this cpu completed
system.cpu1.kern.inst.arm                           0                       # number of arm instructions executed
system.cpu1.kern.inst.quiesce                       0                       # number of quiesce instructions executed
system.cpu1.committedInsts                    4079257                       # Number of instructions committed
system.cpu1.committedOps                      8349350                       # Number of ops (including micro ops) committed
system.cpu1.num_int_alu_accesses              8121860                       # Number of integer alu accesses
system.cpu1.num_fp_alu_accesses                   372                       # Number of float alu accesses
system.cpu1.num_func_calls                     182834                       # number of times a function call or return occured
system.cpu1.num_conditional_control_insts       674603                       # number of instructions that are conditional controls
system.cpu1.num_int_insts                     8121860                       # number of integer instructions
system.cpu1.num_fp_insts                          372                       # number of float instructions
system.cpu1.num_int_register_reads           15815133                       # number of times the integer registers were read
system.cpu1.num_int_register_writes           6695684                       # number of times the integer registers were written
system.cpu1.num_fp_register_reads                 596                       # number of times the floating registers were read
system.cpu1.num_fp_register_writes                261                       # number of times the floating registers were written
system.cpu1.num_cc_register_reads             5110571                       # number of times the CC registers were read
system.cpu1.num_cc_register_writes            3092485                       # number of times the CC registers were written
system.cpu1.num_mem_refs                      1686613                       # number of memory refs
system.cpu1.num_load_insts                    1056579                       # Number of load instructions
system.cpu1.num_store_insts                    630034                       # Number of store instructions
system.cpu1.num_idle_cycles              4704047124.874020                       # Number of idle cycles
system.cpu1.num_busy_cycles              21773870.125980                       # Number of busy cycles
system.cpu1.not_idle_fraction                0.004607                       # Percentage of non-idle cycles
system.cpu1.idle_fraction                    0.995393                       # Percentage of idle cycles
system.cpu1.Branches                           923124                       # Number of branches fetched
system.cpu1.op_class::No_OpClass                83131      1.00%      1.00% # Class of executed instruction
system.cpu1.op_class::IntAlu                  6544078     78.38%     79.37% # Class of executed instruction
system.cpu1.op_class::IntMult                    9765      0.12%     79.49% # Class of executed instruction
system.cpu1.op_class::IntDiv                    25605      0.31%     79.80% # Class of executed instruction
system.cpu1.op_class::FloatAdd                    244      0.00%     79.80% # Class of executed instruction
system.cpu1.op_class::FloatCmp                      0      0.00%     79.80% # Class of executed instruction
system.cpu1.op_class::FloatCvt                      0      0.00%     79.80% # Class of executed instruction
system.cpu1.op_class::FloatMult                     0      0.00%     79.80% # Class of executed instruction
system.cpu1.op_class::FloatDiv                      0      0.00%     79.80% # Class of executed instruction
system.cpu1.op_class::FloatSqrt                     0      0.00%     79.80% # Class of executed instruction
system.cpu1.op_class::SimdAdd                       0      0.00%     79.80% # Class of executed instruction
system.cpu1.op_class::SimdAddAcc                    0      0.00%     79.80% # Class of executed instruction
system.cpu1.op_class::SimdAlu                       0      0.00%     79.80% # Class of executed instruction
system.cpu1.op_class::SimdCmp                       0      0.00%     79.80% # Class of executed instruction
system.cpu1.op_class::SimdCvt                       0      0.00%     79.80% # Class of executed instruction
system.cpu1.op_class::SimdMisc                      0      0.00%     79.80% # Class of executed instruction
system.cpu1.op_class::SimdMult                      0      0.00%     79.80% # Class of executed instruction
system.cpu1.op_class::SimdMultAcc                   0      0.00%     79.80% # Class of executed instruction
system.cpu1.op_class::SimdShift                     0      0.00%     79.80% # Class of executed instruction
system.cpu1.op_class::SimdShiftAcc                  0      0.00%     79.80% # Class of executed instruction
system.cpu1.op_class::SimdSqrt                      0      0.00%     79.80% # Class of executed instruction
system.cpu1.op_class::SimdFloatAdd                  0      0.00%     79.80% # Class of executed instruction
system.cpu1.op_class::SimdFloatAlu                  0      0.00%     79.80% # Class of executed instruction
system.cpu1.op_class::SimdFloatCmp                  0      0.00%     79.80% # Class of executed instruction
system.cpu1.op_class::SimdFloatCvt                  0      0.00%     79.80% # Class of executed instruction
system.cpu1.op_class::SimdFloatDiv                  0      0.00%     79.80% # Class of executed instruction
system.cpu1.op_class::SimdFloatMisc                 0      0.00%     79.80% # Class of executed instruction
system.cpu1.op_class::SimdFloatMult                 0      0.00%     79.80% # Class of executed instruction
system.cpu1.op_class::SimdFloatMultAcc              0      0.00%     79.80% # Class of executed instruction
system.cpu1.op_class::SimdFloatSqrt                 0      0.00%     79.80% # Class of executed instruction
system.cpu1.op_class::MemRead                 1056579     12.65%     92.45% # Class of executed instruction
system.cpu1.op_class::MemWrite                 630034      7.55%    100.00% # Class of executed instruction
system.cpu1.op_class::IprAccess                     0      0.00%    100.00% # Class of executed instruction
system.cpu1.op_class::InstPrefetch                  0      0.00%    100.00% # Class of executed instruction
system.cpu1.op_class::total                   8349436                       # Class of executed instruction
system.cpu2.apic_clk_domain.clock                8000                       # Clock period in ticks
system.cpu2.numCycles                      4717763586                       # number of cpu cycles simulated
system.cpu2.numWorkItemsStarted                     0                       # number of work items this cpu started
system.cpu2.numWorkItemsCompleted                   0                       # number of work items this cpu completed
system.cpu2.kern.inst.arm                           0                       # number of arm instructions executed
system.cpu2.kern.inst.quiesce                       0                       # number of quiesce instructions executed
system.cpu2.committedInsts                 1297205771                       # Number of instructions committed
system.cpu2.committedOps                   2348156304                       # Number of ops (including micro ops) committed
system.cpu2.num_int_alu_accesses           1506195028                       # Number of integer alu accesses
system.cpu2.num_fp_alu_accesses            1130300518                       # Number of float alu accesses
system.cpu2.num_func_calls                     781709                       # number of times a function call or return occured
system.cpu2.num_conditional_control_insts    160843247                       # number of instructions that are conditional controls
system.cpu2.num_int_insts                  1506195028                       # number of integer instructions
system.cpu2.num_fp_insts                   1130300518                       # number of float instructions
system.cpu2.num_int_register_reads         2939076106                       # number of times the integer registers were read
system.cpu2.num_int_register_writes        1033362248                       # number of times the integer registers were written
system.cpu2.num_fp_register_reads          1382500686                       # number of times the floating registers were read
system.cpu2.num_fp_register_writes         1075410587                       # number of times the floating registers were written
system.cpu2.num_cc_register_reads           938720547                       # number of times the CC registers were read
system.cpu2.num_cc_register_writes          527879562                       # number of times the CC registers were written
system.cpu2.num_mem_refs                    388209537                       # number of memory refs
system.cpu2.num_load_insts                  349874079                       # Number of load instructions
system.cpu2.num_store_insts                  38335458                       # Number of store instructions
system.cpu2.num_idle_cycles              24742120.503249                       # Number of idle cycles
system.cpu2.num_busy_cycles              4693021465.496751                       # Number of busy cycles
system.cpu2.not_idle_fraction                0.994756                       # Percentage of non-idle cycles
system.cpu2.idle_fraction                    0.005244                       # Percentage of idle cycles
system.cpu2.Branches                        166210506                       # Number of branches fetched
system.cpu2.op_class::No_OpClass              3897133      0.17%      0.17% # Class of executed instruction
system.cpu2.op_class::IntAlu               1228353938     52.31%     52.48% # Class of executed instruction
system.cpu2.op_class::IntMult                 4266882      0.18%     52.66% # Class of executed instruction
system.cpu2.op_class::IntDiv                      707      0.00%     52.66% # Class of executed instruction
system.cpu2.op_class::FloatAdd              723444434     30.81%     83.47% # Class of executed instruction
system.cpu2.op_class::FloatCmp                      0      0.00%     83.47% # Class of executed instruction
system.cpu2.op_class::FloatCvt                      0      0.00%     83.47% # Class of executed instruction
system.cpu2.op_class::FloatMult                     0      0.00%     83.47% # Class of executed instruction
system.cpu2.op_class::FloatDiv                      0      0.00%     83.47% # Class of executed instruction
system.cpu2.op_class::FloatSqrt                     0      0.00%     83.47% # Class of executed instruction
system.cpu2.op_class::SimdAdd                       0      0.00%     83.47% # Class of executed instruction
system.cpu2.op_class::SimdAddAcc                    0      0.00%     83.47% # Class of executed instruction
system.cpu2.op_class::SimdAlu                       0      0.00%     83.47% # Class of executed instruction
system.cpu2.op_class::SimdCmp                       0      0.00%     83.47% # Class of executed instruction
system.cpu2.op_class::SimdCvt                       0      0.00%     83.47% # Class of executed instruction
system.cpu2.op_class::SimdMisc                      0      0.00%     83.47% # Class of executed instruction
system.cpu2.op_class::SimdMult                      0      0.00%     83.47% # Class of executed instruction
system.cpu2.op_class::SimdMultAcc                   0      0.00%     83.47% # Class of executed instruction
system.cpu2.op_class::SimdShift                     0      0.00%     83.47% # Class of executed instruction
system.cpu2.op_class::SimdShiftAcc                  0      0.00%     83.47% # Class of executed instruction
system.cpu2.op_class::SimdSqrt                      0      0.00%     83.47% # Class of executed instruction
system.cpu2.op_class::SimdFloatAdd                  0      0.00%     83.47% # Class of executed instruction
system.cpu2.op_class::SimdFloatAlu                  0      0.00%     83.47% # Class of executed instruction
system.cpu2.op_class::SimdFloatCmp                  0      0.00%     83.47% # Class of executed instruction
system.cpu2.op_class::SimdFloatCvt                  0      0.00%     83.47% # Class of executed instruction
system.cpu2.op_class::SimdFloatDiv                  0      0.00%     83.47% # Class of executed instruction
system.cpu2.op_class::SimdFloatMisc                 0      0.00%     83.47% # Class of executed instruction
system.cpu2.op_class::SimdFloatMult                 0      0.00%     83.47% # Class of executed instruction
system.cpu2.op_class::SimdFloatMultAcc              0      0.00%     83.47% # Class of executed instruction
system.cpu2.op_class::SimdFloatSqrt                 0      0.00%     83.47% # Class of executed instruction
system.cpu2.op_class::MemRead               349874079     14.90%     98.37% # Class of executed instruction
system.cpu2.op_class::MemWrite               38335458      1.63%    100.00% # Class of executed instruction
system.cpu2.op_class::IprAccess                     0      0.00%    100.00% # Class of executed instruction
system.cpu2.op_class::InstPrefetch                  0      0.00%    100.00% # Class of executed instruction
system.cpu2.op_class::total                2348172631                       # Class of executed instruction
system.cpu3.apic_clk_domain.clock                8000                       # Clock period in ticks
system.cpu3.numCycles                      4721939359                       # number of cpu cycles simulated
system.cpu3.numWorkItemsStarted                     0                       # number of work items this cpu started
system.cpu3.numWorkItemsCompleted                   0                       # number of work items this cpu completed
system.cpu3.kern.inst.arm                           0                       # number of arm instructions executed
system.cpu3.kern.inst.quiesce                       0                       # number of quiesce instructions executed
system.cpu3.committedInsts                    4743055                       # Number of instructions committed
system.cpu3.committedOps                      9543511                       # Number of ops (including micro ops) committed
system.cpu3.num_int_alu_accesses              9372227                       # Number of integer alu accesses
system.cpu3.num_fp_alu_accesses                  1778                       # Number of float alu accesses
system.cpu3.num_func_calls                     245958                       # number of times a function call or return occured
system.cpu3.num_conditional_control_insts       825411                       # number of instructions that are conditional controls
system.cpu3.num_int_insts                     9372227                       # number of integer instructions
system.cpu3.num_fp_insts                         1778                       # number of float instructions
system.cpu3.num_int_register_reads           18524651                       # number of times the integer registers were read
system.cpu3.num_int_register_writes           7629078                       # number of times the integer registers were written
system.cpu3.num_fp_register_reads                2988                       # number of times the floating registers were read
system.cpu3.num_fp_register_writes               1416                       # number of times the floating registers were written
system.cpu3.num_cc_register_reads             6154915                       # number of times the CC registers were read
system.cpu3.num_cc_register_writes            3256981                       # number of times the CC registers were written
system.cpu3.num_mem_refs                      2114879                       # number of memory refs
system.cpu3.num_load_insts                    1370544                       # Number of load instructions
system.cpu3.num_store_insts                    744335                       # Number of store instructions
system.cpu3.num_idle_cycles              4701555414.724138                       # Number of idle cycles
system.cpu3.num_busy_cycles              20383944.275862                       # Number of busy cycles
system.cpu3.not_idle_fraction                0.004317                       # Percentage of non-idle cycles
system.cpu3.idle_fraction                    0.995683                       # Percentage of idle cycles
system.cpu3.Branches                          1117385                       # Number of branches fetched
system.cpu3.op_class::No_OpClass                74349      0.78%      0.78% # Class of executed instruction
system.cpu3.op_class::IntAlu                  7319265     76.69%     77.47% # Class of executed instruction
system.cpu3.op_class::IntMult                    8559      0.09%     77.56% # Class of executed instruction
system.cpu3.op_class::IntDiv                    25205      0.26%     77.83% # Class of executed instruction
system.cpu3.op_class::FloatAdd                   1344      0.01%     77.84% # Class of executed instruction
system.cpu3.op_class::FloatCmp                      0      0.00%     77.84% # Class of executed instruction
system.cpu3.op_class::FloatCvt                      0      0.00%     77.84% # Class of executed instruction
system.cpu3.op_class::FloatMult                     0      0.00%     77.84% # Class of executed instruction
system.cpu3.op_class::FloatDiv                      0      0.00%     77.84% # Class of executed instruction
system.cpu3.op_class::FloatSqrt                     0      0.00%     77.84% # Class of executed instruction
system.cpu3.op_class::SimdAdd                       0      0.00%     77.84% # Class of executed instruction
system.cpu3.op_class::SimdAddAcc                    0      0.00%     77.84% # Class of executed instruction
system.cpu3.op_class::SimdAlu                       0      0.00%     77.84% # Class of executed instruction
system.cpu3.op_class::SimdCmp                       0      0.00%     77.84% # Class of executed instruction
system.cpu3.op_class::SimdCvt                       0      0.00%     77.84% # Class of executed instruction
system.cpu3.op_class::SimdMisc                      0      0.00%     77.84% # Class of executed instruction
system.cpu3.op_class::SimdMult                      0      0.00%     77.84% # Class of executed instruction
system.cpu3.op_class::SimdMultAcc                   0      0.00%     77.84% # Class of executed instruction
system.cpu3.op_class::SimdShift                     0      0.00%     77.84% # Class of executed instruction
system.cpu3.op_class::SimdShiftAcc                  0      0.00%     77.84% # Class of executed instruction
system.cpu3.op_class::SimdSqrt                      0      0.00%     77.84% # Class of executed instruction
system.cpu3.op_class::SimdFloatAdd                  0      0.00%     77.84% # Class of executed instruction
system.cpu3.op_class::SimdFloatAlu                  0      0.00%     77.84% # Class of executed instruction
system.cpu3.op_class::SimdFloatCmp                  0      0.00%     77.84% # Class of executed instruction
system.cpu3.op_class::SimdFloatCvt                  0      0.00%     77.84% # Class of executed instruction
system.cpu3.op_class::SimdFloatDiv                  0      0.00%     77.84% # Class of executed instruction
system.cpu3.op_class::SimdFloatMisc                 0      0.00%     77.84% # Class of executed instruction
system.cpu3.op_class::SimdFloatMult                 0      0.00%     77.84% # Class of executed instruction
system.cpu3.op_class::SimdFloatMultAcc              0      0.00%     77.84% # Class of executed instruction
system.cpu3.op_class::SimdFloatSqrt                 0      0.00%     77.84% # Class of executed instruction
system.cpu3.op_class::MemRead                 1370544     14.36%     92.20% # Class of executed instruction
system.cpu3.op_class::MemWrite                 744335      7.80%    100.00% # Class of executed instruction
system.cpu3.op_class::IprAccess                     0      0.00%    100.00% # Class of executed instruction
system.cpu3.op_class::InstPrefetch                  0      0.00%    100.00% # Class of executed instruction
system.cpu3.op_class::total                   9543601                       # Class of executed instruction
system.iobus.trans_dist::ReadReq                  401                       # Transaction distribution
system.iobus.trans_dist::ReadResp                 401                       # Transaction distribution
system.iobus.trans_dist::WriteReq                3066                       # Transaction distribution
system.iobus.trans_dist::WriteResp               3066                       # Transaction distribution
system.iobus.trans_dist::MessageReq                54                       # Transaction distribution
system.iobus.trans_dist::MessageResp               54                       # Transaction distribution
system.iobus.pkt_count_system.pc.south_bridge.io_apic.int_master::system.ruby.l1_cntrl0.sequencer.pio-slave-port           22                       # Packet count per connected master and slave (bytes)
system.iobus.pkt_count_system.pc.south_bridge.io_apic.int_master::system.ruby.l1_cntrl1.sequencer.pio-slave-port           22                       # Packet count per connected master and slave (bytes)
system.iobus.pkt_count_system.pc.south_bridge.io_apic.int_master::system.ruby.l1_cntrl2.sequencer.pio-slave-port           20                       # Packet count per connected master and slave (bytes)
system.iobus.pkt_count_system.pc.south_bridge.io_apic.int_master::system.ruby.l1_cntrl3.sequencer.pio-slave-port           22                       # Packet count per connected master and slave (bytes)
system.iobus.pkt_count_system.pc.south_bridge.io_apic.int_master::total           86                       # Packet count per connected master and slave (bytes)
system.iobus.pkt_count_system.ruby.l1_cntrl0.sequencer.mem-master-port::system.pc.south_bridge.ide.pio          460                       # Packet count per connected master and slave (bytes)
system.iobus.pkt_count_system.ruby.l1_cntrl0.sequencer.mem-master-port::system.pc.south_bridge.io_apic.pio            8                       # Packet count per connected master and slave (bytes)
system.iobus.pkt_count_system.ruby.l1_cntrl0.sequencer.mem-master-port::system.pc.com_1.pio            2                       # Packet count per connected master and slave (bytes)
system.iobus.pkt_count_system.ruby.l1_cntrl0.sequencer.mem-master-port::system.ruby.l1_cntrl0.sequencer.pio-slave-port         1212                       # Packet count per connected master and slave (bytes)
system.iobus.pkt_count_system.ruby.l1_cntrl0.sequencer.mem-master-port::system.ruby.l1_cntrl1.sequencer.pio-slave-port            2                       # Packet count per connected master and slave (bytes)
system.iobus.pkt_count_system.ruby.l1_cntrl0.sequencer.mem-master-port::total         1684                       # Packet count per connected master and slave (bytes)
system.iobus.pkt_count_system.ruby.l1_cntrl1.sequencer.mem-master-port::system.pc.south_bridge.ide.pio          528                       # Packet count per connected master and slave (bytes)
system.iobus.pkt_count_system.ruby.l1_cntrl1.sequencer.mem-master-port::system.pc.south_bridge.io_apic.pio            8                       # Packet count per connected master and slave (bytes)
system.iobus.pkt_count_system.ruby.l1_cntrl1.sequencer.mem-master-port::system.ruby.l1_cntrl0.sequencer.pio-slave-port            2                       # Packet count per connected master and slave (bytes)
system.iobus.pkt_count_system.ruby.l1_cntrl1.sequencer.mem-master-port::system.ruby.l1_cntrl1.sequencer.pio-slave-port         1236                       # Packet count per connected master and slave (bytes)
system.iobus.pkt_count_system.ruby.l1_cntrl1.sequencer.mem-master-port::system.ruby.l1_cntrl2.sequencer.pio-slave-port            6                       # Packet count per connected master and slave (bytes)
system.iobus.pkt_count_system.ruby.l1_cntrl1.sequencer.mem-master-port::total         1780                       # Packet count per connected master and slave (bytes)
system.iobus.pkt_count_system.ruby.l1_cntrl2.sequencer.mem-master-port::system.pc.south_bridge.ide.pio          392                       # Packet count per connected master and slave (bytes)
system.iobus.pkt_count_system.ruby.l1_cntrl2.sequencer.mem-master-port::system.ruby.l1_cntrl1.sequencer.pio-slave-port            4                       # Packet count per connected master and slave (bytes)
system.iobus.pkt_count_system.ruby.l1_cntrl2.sequencer.mem-master-port::system.ruby.l1_cntrl2.sequencer.pio-slave-port         1226                       # Packet count per connected master and slave (bytes)
system.iobus.pkt_count_system.ruby.l1_cntrl2.sequencer.mem-master-port::system.ruby.l1_cntrl3.sequencer.pio-slave-port            2                       # Packet count per connected master and slave (bytes)
system.iobus.pkt_count_system.ruby.l1_cntrl2.sequencer.mem-master-port::total         1624                       # Packet count per connected master and slave (bytes)
system.iobus.pkt_count_system.ruby.l1_cntrl3.sequencer.mem-master-port::system.pc.south_bridge.ide.pio          460                       # Packet count per connected master and slave (bytes)
system.iobus.pkt_count_system.ruby.l1_cntrl3.sequencer.mem-master-port::system.pc.south_bridge.io_apic.pio            6                       # Packet count per connected master and slave (bytes)
system.iobus.pkt_count_system.ruby.l1_cntrl3.sequencer.mem-master-port::system.pc.com_1.pio          174                       # Packet count per connected master and slave (bytes)
system.iobus.pkt_count_system.ruby.l1_cntrl3.sequencer.mem-master-port::system.ruby.l1_cntrl0.sequencer.pio-slave-port            2                       # Packet count per connected master and slave (bytes)
system.iobus.pkt_count_system.ruby.l1_cntrl3.sequencer.mem-master-port::system.ruby.l1_cntrl1.sequencer.pio-slave-port            2                       # Packet count per connected master and slave (bytes)
system.iobus.pkt_count_system.ruby.l1_cntrl3.sequencer.mem-master-port::system.ruby.l1_cntrl2.sequencer.pio-slave-port            2                       # Packet count per connected master and slave (bytes)
system.iobus.pkt_count_system.ruby.l1_cntrl3.sequencer.mem-master-port::system.ruby.l1_cntrl3.sequencer.pio-slave-port         1222                       # Packet count per connected master and slave (bytes)
system.iobus.pkt_count_system.ruby.l1_cntrl3.sequencer.mem-master-port::total         1868                       # Packet count per connected master and slave (bytes)
system.iobus.pkt_count::total                    7042                       # Packet count per connected master and slave (bytes)
system.iobus.pkt_size_system.pc.south_bridge.io_apic.int_master::system.ruby.l1_cntrl0.sequencer.pio-slave-port           44                       # Cumulative packet size per connected master and slave (bytes)
system.iobus.pkt_size_system.pc.south_bridge.io_apic.int_master::system.ruby.l1_cntrl1.sequencer.pio-slave-port           44                       # Cumulative packet size per connected master and slave (bytes)
system.iobus.pkt_size_system.pc.south_bridge.io_apic.int_master::system.ruby.l1_cntrl2.sequencer.pio-slave-port           40                       # Cumulative packet size per connected master and slave (bytes)
system.iobus.pkt_size_system.pc.south_bridge.io_apic.int_master::system.ruby.l1_cntrl3.sequencer.pio-slave-port           44                       # Cumulative packet size per connected master and slave (bytes)
system.iobus.pkt_size_system.pc.south_bridge.io_apic.int_master::total          172                       # Cumulative packet size per connected master and slave (bytes)
system.iobus.pkt_size_system.ruby.l1_cntrl0.sequencer.mem-master-port::system.pc.south_bridge.ide.pio          260                       # Cumulative packet size per connected master and slave (bytes)
system.iobus.pkt_size_system.ruby.l1_cntrl0.sequencer.mem-master-port::system.pc.south_bridge.io_apic.pio           16                       # Cumulative packet size per connected master and slave (bytes)
system.iobus.pkt_size_system.ruby.l1_cntrl0.sequencer.mem-master-port::system.pc.com_1.pio            1                       # Cumulative packet size per connected master and slave (bytes)
system.iobus.pkt_size_system.ruby.l1_cntrl0.sequencer.mem-master-port::system.ruby.l1_cntrl0.sequencer.pio-slave-port         2424                       # Cumulative packet size per connected master and slave (bytes)
system.iobus.pkt_size_system.ruby.l1_cntrl0.sequencer.mem-master-port::system.ruby.l1_cntrl1.sequencer.pio-slave-port            4                       # Cumulative packet size per connected master and slave (bytes)
system.iobus.pkt_size_system.ruby.l1_cntrl0.sequencer.mem-master-port::total         2705                       # Cumulative packet size per connected master and slave (bytes)
system.iobus.pkt_size_system.ruby.l1_cntrl1.sequencer.mem-master-port::system.pc.south_bridge.ide.pio          300                       # Cumulative packet size per connected master and slave (bytes)
system.iobus.pkt_size_system.ruby.l1_cntrl1.sequencer.mem-master-port::system.pc.south_bridge.io_apic.pio           16                       # Cumulative packet size per connected master and slave (bytes)
system.iobus.pkt_size_system.ruby.l1_cntrl1.sequencer.mem-master-port::system.ruby.l1_cntrl0.sequencer.pio-slave-port            4                       # Cumulative packet size per connected master and slave (bytes)
system.iobus.pkt_size_system.ruby.l1_cntrl1.sequencer.mem-master-port::system.ruby.l1_cntrl1.sequencer.pio-slave-port         2472                       # Cumulative packet size per connected master and slave (bytes)
system.iobus.pkt_size_system.ruby.l1_cntrl1.sequencer.mem-master-port::system.ruby.l1_cntrl2.sequencer.pio-slave-port           12                       # Cumulative packet size per connected master and slave (bytes)
system.iobus.pkt_size_system.ruby.l1_cntrl1.sequencer.mem-master-port::total         2804                       # Cumulative packet size per connected master and slave (bytes)
system.iobus.pkt_size_system.ruby.l1_cntrl2.sequencer.mem-master-port::system.pc.south_bridge.ide.pio          220                       # Cumulative packet size per connected master and slave (bytes)
system.iobus.pkt_size_system.ruby.l1_cntrl2.sequencer.mem-master-port::system.ruby.l1_cntrl1.sequencer.pio-slave-port            8                       # Cumulative packet size per connected master and slave (bytes)
system.iobus.pkt_size_system.ruby.l1_cntrl2.sequencer.mem-master-port::system.ruby.l1_cntrl2.sequencer.pio-slave-port         2452                       # Cumulative packet size per connected master and slave (bytes)
system.iobus.pkt_size_system.ruby.l1_cntrl2.sequencer.mem-master-port::system.ruby.l1_cntrl3.sequencer.pio-slave-port            4                       # Cumulative packet size per connected master and slave (bytes)
system.iobus.pkt_size_system.ruby.l1_cntrl2.sequencer.mem-master-port::total         2684                       # Cumulative packet size per connected master and slave (bytes)
system.iobus.pkt_size_system.ruby.l1_cntrl3.sequencer.mem-master-port::system.pc.south_bridge.ide.pio          260                       # Cumulative packet size per connected master and slave (bytes)
system.iobus.pkt_size_system.ruby.l1_cntrl3.sequencer.mem-master-port::system.pc.south_bridge.io_apic.pio           12                       # Cumulative packet size per connected master and slave (bytes)
system.iobus.pkt_size_system.ruby.l1_cntrl3.sequencer.mem-master-port::system.pc.com_1.pio           87                       # Cumulative packet size per connected master and slave (bytes)
system.iobus.pkt_size_system.ruby.l1_cntrl3.sequencer.mem-master-port::system.ruby.l1_cntrl0.sequencer.pio-slave-port            4                       # Cumulative packet size per connected master and slave (bytes)
system.iobus.pkt_size_system.ruby.l1_cntrl3.sequencer.mem-master-port::system.ruby.l1_cntrl1.sequencer.pio-slave-port            4                       # Cumulative packet size per connected master and slave (bytes)
system.iobus.pkt_size_system.ruby.l1_cntrl3.sequencer.mem-master-port::system.ruby.l1_cntrl2.sequencer.pio-slave-port            4                       # Cumulative packet size per connected master and slave (bytes)
system.iobus.pkt_size_system.ruby.l1_cntrl3.sequencer.mem-master-port::system.ruby.l1_cntrl3.sequencer.pio-slave-port         2444                       # Cumulative packet size per connected master and slave (bytes)
system.iobus.pkt_size_system.ruby.l1_cntrl3.sequencer.mem-master-port::total         2815                       # Cumulative packet size per connected master and slave (bytes)
system.iobus.pkt_size::total                    11180                       # Cumulative packet size per connected master and slave (bytes)
system.iobus.reqLayer2.occupancy              1602500                       # Layer occupancy (ticks)
system.iobus.reqLayer2.utilization                0.0                       # Layer utilization (%)
system.iobus.reqLayer8.occupancy                19997                       # Layer occupancy (ticks)
system.iobus.reqLayer8.utilization                0.0                       # Layer utilization (%)
system.iobus.reqLayer12.occupancy              112000                       # Layer occupancy (ticks)
system.iobus.reqLayer12.utilization               0.0                       # Layer utilization (%)
system.iobus.reqLayer17.occupancy             1537990                       # Layer occupancy (ticks)
system.iobus.reqLayer17.utilization               0.0                       # Layer utilization (%)
system.iobus.reqLayer18.occupancy             1569989                       # Layer occupancy (ticks)
system.iobus.reqLayer18.utilization               0.0                       # Layer utilization (%)
system.iobus.reqLayer19.occupancy             1672466                       # Layer occupancy (ticks)
system.iobus.reqLayer19.utilization               0.0                       # Layer utilization (%)
system.iobus.reqLayer20.occupancy             1548488                       # Layer occupancy (ticks)
system.iobus.reqLayer20.utilization               0.0                       # Layer utilization (%)
system.iobus.respLayer0.occupancy               76460                       # Layer occupancy (ticks)
system.iobus.respLayer0.utilization               0.0                       # Layer utilization (%)
system.iobus.respLayer2.occupancy             1228000                       # Layer occupancy (ticks)
system.iobus.respLayer2.utilization               0.0                       # Layer utilization (%)
system.iobus.respLayer4.occupancy             1293000                       # Layer occupancy (ticks)
system.iobus.respLayer4.utilization               0.0                       # Layer utilization (%)
system.iobus.respLayer6.occupancy             1194000                       # Layer occupancy (ticks)
system.iobus.respLayer6.utilization               0.0                       # Layer utilization (%)
system.iobus.respLayer8.occupancy             1388500                       # Layer occupancy (ticks)
system.iobus.respLayer8.utilization               0.0                       # Layer utilization (%)
system.pc.south_bridge.ide.disks.dma_read_full_pages          356                       # Number of full page size DMA reads (not PRD).
system.pc.south_bridge.ide.disks.dma_read_bytes      1458176                       # Number of bytes transfered via DMA reads (not PRD).
system.pc.south_bridge.ide.disks.dma_read_txs          356                       # Number of DMA read transactions (not PRD).
system.pc.south_bridge.ide.disks.dma_write_full_pages            0                       # Number of full page size DMA writes.
system.pc.south_bridge.ide.disks.dma_write_bytes            0                       # Number of bytes transfered via DMA writes.
system.pc.south_bridge.ide.disks.dma_write_txs            0                       # Number of DMA write transactions.
system.ruby.clk_domain.clock                      500                       # Clock period in ticks
system.ruby.outstanding_req_hist_seqr::bucket_size            1                      
system.ruby.outstanding_req_hist_seqr::max_bucket            9                      
system.ruby.outstanding_req_hist_seqr::samples   2273990344                      
system.ruby.outstanding_req_hist_seqr::mean     1.001962                      
system.ruby.outstanding_req_hist_seqr::gmean     1.001361                      
system.ruby.outstanding_req_hist_seqr::stdev     0.044256                      
system.ruby.outstanding_req_hist_seqr    |           0      0.00%      0.00% |  2269527777     99.80%     99.80% |     4462567      0.20%    100.00% |           0      0.00%    100.00% |           0      0.00%    100.00% |           0      0.00%    100.00% |           0      0.00%    100.00% |           0      0.00%    100.00% |           0      0.00%    100.00% |           0      0.00%    100.00%
system.ruby.outstanding_req_hist_seqr::total   2273990344                      
system.ruby.latency_hist_seqr::bucket_size          256                      
system.ruby.latency_hist_seqr::max_bucket         2559                      
system.ruby.latency_hist_seqr::samples     2273990344                      
system.ruby.latency_hist_seqr::mean          1.090858                      
system.ruby.latency_hist_seqr::gmean         1.004138                      
system.ruby.latency_hist_seqr::stdev         3.696931                      
system.ruby.latency_hist_seqr            |  2273948768    100.00%    100.00% |       24992      0.00%    100.00% |       16202      0.00%    100.00% |         290      0.00%    100.00% |          88      0.00%    100.00% |           4      0.00%    100.00% |           0      0.00%    100.00% |           0      0.00%    100.00% |           0      0.00%    100.00% |           0      0.00%    100.00%
system.ruby.latency_hist_seqr::total       2273990344                      
system.ruby.hit_latency_hist_seqr::bucket_size            1                      
[...]
system.ruby.L1Cache_Controller.S.Inv::total        12273                      
system.ruby.L1Cache_Controller.O.Load    |         977     10.89%     10.89% |        2251     25.09%     35.99% |         253      2.82%     38.81% |        5489     61.19%    100.00%
system.ruby.L1Cache_Controller.O.Load::total         8970                      
system.ruby.L1Cache_Controller.O.Store   |          46     35.38%     35.38% |          26     20.00%     55.38% |          12      9.23%     64.62% |          46     35.38%    100.00%
system.ruby.L1Cache_Controller.O.Store::total          130                      
system.ruby.L1Cache_Controller.O.L1_Replacement |         263     24.98%     24.98% |         178     16.90%     41.88% |         458     43.49%     85.38% |         154     14.62%    100.00%
system.ruby.L1Cache_Controller.O.L1_Replacement::total         1053                      
system.ruby.L1Cache_Controller.O.Fwd_GETX |        2841     25.02%     25.02% |        3118     27.45%     52.47% |         185      1.63%     54.10% |        5213     45.90%    100.00%
system.ruby.L1Cache_Controller.O.Fwd_GETX::total        11357                      
system.ruby.L1Cache_Controller.O.Fwd_GETS |        1874     19.90%     19.90% |        1151     12.22%     32.13% |         329      3.49%     35.62% |        6062     64.38%    100.00%
system.ruby.L1Cache_Controller.O.Fwd_GETS::total         9416                      
system.ruby.L1Cache_Controller.M.Load    |       40516      0.24%      0.24% |       39224      0.23%      0.47% |    16341300     96.23%     96.70% |      560896      3.30%    100.00%
system.ruby.L1Cache_Controller.M.Load::total     16981936                      
system.ruby.L1Cache_Controller.M.Store   |        2503      3.23%      3.23% |        2515      3.25%      6.48% |       19936     25.73%     32.21% |       52518     67.79%    100.00%
system.ruby.L1Cache_Controller.M.Store::total        77472                      
system.ruby.L1Cache_Controller.M.L1_Replacement |        4393      5.97%      5.97% |        4127      5.61%     11.58% |       39833     54.12%     65.70% |       25243     34.30%    100.00%
system.ruby.L1Cache_Controller.M.L1_Replacement::total        73596                      
system.ruby.L1Cache_Controller.M.Fwd_GETX |         291     12.21%     12.21% |         643     26.97%     39.18% |          92      3.86%     43.04% |        1358     56.96%    100.00%
system.ruby.L1Cache_Controller.M.Fwd_GETX::total         2384                      
system.ruby.L1Cache_Controller.M.Fwd_GETS |        3144     25.28%     25.28% |        3323     26.72%     52.01% |         527      4.24%     56.24% |        5441     43.76%    100.00%
system.ruby.L1Cache_Controller.M.Fwd_GETS::total        12435                      
system.ruby.L1Cache_Controller.M_W.Load  |        8822      3.78%      3.78% |        7735      3.31%      7.09% |      120714     51.72%     58.81% |       96125     41.19%    100.00%
system.ruby.L1Cache_Controller.M_W.Load::total       233396                      
system.ruby.L1Cache_Controller.M_W.Store |         744      0.68%      0.68% |        2746      2.51%      3.19% |       94087     85.93%     89.11% |       11920     10.89%    100.00%
system.ruby.L1Cache_Controller.M_W.Store::total       109497                      
system.ruby.L1Cache_Controller.M_W.L1_Replacement |           0      0.00%      0.00% |          15    100.00%    100.00% |           0      0.00%    100.00% |           0      0.00%    100.00%
system.ruby.L1Cache_Controller.M_W.L1_Replacement::total           15                      
system.ruby.L1Cache_Controller.M_W.Fwd_GETX |           9     60.00%     60.00% |           0      0.00%     60.00% |           6     40.00%    100.00% |           0      0.00%    100.00%
system.ruby.L1Cache_Controller.M_W.Fwd_GETX::total           15                      
system.ruby.L1Cache_Controller.M_W.Fwd_GETS |          92     47.18%     47.18% |          38     19.49%     66.67% |          23     11.79%     78.46% |          42     21.54%    100.00%
system.ruby.L1Cache_Controller.M_W.Fwd_GETS::total          195                      
system.ruby.L1Cache_Controller.M_W.Use_Timeout |       10453      6.29%      6.29% |       10802      6.50%     12.79% |       60362     36.33%     49.13% |       84523     50.87%    100.00%
system.ruby.L1Cache_Controller.M_W.Use_Timeout::total       166140                      
system.ruby.L1Cache_Controller.MM.Load   |      616709      0.75%      0.75% |      674108      0.82%      1.57% |    64143924     77.88%     79.44% |    16931078     20.56%    100.00%
system.ruby.L1Cache_Controller.MM.Load::total     82365819                      
system.ruby.L1Cache_Controller.MM.Store  |      619299      1.18%      1.18% |      705084      1.35%      2.53% |    38542436     73.69%     76.22% |    12437702     23.78%    100.00%
system.ruby.L1Cache_Controller.MM.Store::total     52304521                      
system.ruby.L1Cache_Controller.MM.L1_Replacement |       11353      1.07%      1.07% |       35265      3.33%      4.40% |      835283     78.89%     83.30% |      176833     16.70%    100.00%
system.ruby.L1Cache_Controller.MM.L1_Replacement::total      1058734                      
system.ruby.L1Cache_Controller.MM.Fwd_GETX |         679     19.58%     19.58% |        1195     34.47%     54.05% |         481     13.87%     67.93% |        1112     32.07%    100.00%
system.ruby.L1Cache_Controller.MM.Fwd_GETX::total         3467                      
system.ruby.L1Cache_Controller.MM.Fwd_GETS |        5812     35.34%     35.34% |        3918     23.83%     59.17% |        3101     18.86%     78.03% |        3613     21.97%    100.00%
system.ruby.L1Cache_Controller.MM.Fwd_GETS::total        16444                      
system.ruby.L1Cache_Controller.MM.Fwd_DMA |          42     14.69%     14.69% |         120     41.96%     56.64% |          47     16.43%     73.08% |          77     26.92%    100.00%
system.ruby.L1Cache_Controller.MM.Fwd_DMA::total          286                      
system.ruby.L1Cache_Controller.MM_W.Load |        1603      2.08%      2.08% |       15314     19.87%     21.95% |       44986     58.36%     80.31% |       15179     19.69%    100.00%
system.ruby.L1Cache_Controller.MM_W.Load::total        77082                      
system.ruby.L1Cache_Controller.MM_W.Store |       55203      5.12%      5.12% |      130735     12.13%     17.25% |      649207     60.24%     77.49% |      242533     22.51%    100.00%
system.ruby.L1Cache_Controller.MM_W.Store::total      1077678                      
system.ruby.L1Cache_Controller.MM_W.L1_Replacement |           0      0.00%      0.00% |           3     75.00%     75.00% |           0      0.00%     75.00% |           1     25.00%    100.00%
system.ruby.L1Cache_Controller.MM_W.L1_Replacement::total            4                      
system.ruby.L1Cache_Controller.MM_W.Fwd_GETX |           6     54.55%     54.55% |           0      0.00%     54.55% |           0      0.00%     54.55% |           5     45.45%    100.00%
system.ruby.L1Cache_Controller.MM_W.Fwd_GETX::total           11                      
system.ruby.L1Cache_Controller.MM_W.Fwd_GETS |         108     32.34%     32.34% |          90     26.95%     59.28% |          49     14.67%     73.95% |          87     26.05%    100.00%
system.ruby.L1Cache_Controller.MM_W.Fwd_GETS::total          334                      
system.ruby.L1Cache_Controller.MM_W.Use_Timeout |       16008      1.60%      1.60% |       37585      3.75%      5.35% |      819492     81.80%     87.15% |      128704     12.85%    100.00%
system.ruby.L1Cache_Controller.MM_W.Use_Timeout::total      1001789                      
system.ruby.L1Cache_Controller.IM.Ack    |        6118     40.78%     40.78% |        2463     16.42%     57.20% |        3088     20.59%     77.79% |        3332     22.21%    100.00%
system.ruby.L1Cache_Controller.IM.Ack::total        15001                      
system.ruby.L1Cache_Controller.IM.Exclusive_Data |       11269      1.99%      1.99% |       13522      2.38%      4.37% |      476096     83.88%     88.25% |       66715     11.75%    100.00%
system.ruby.L1Cache_Controller.IM.Exclusive_Data::total       567602                      
system.ruby.L1Cache_Controller.SM.Inv    |           1    100.00%    100.00% |           0      0.00%    100.00% |           0      0.00%    100.00% |           0      0.00%    100.00%
system.ruby.L1Cache_Controller.SM.Inv::total            1                      
system.ruby.L1Cache_Controller.SM.Ack    |        6937     57.88%     57.88% |         892      7.44%     65.32% |        2001     16.70%     82.02% |        2155     17.98%    100.00%
system.ruby.L1Cache_Controller.SM.Ack::total        11985                      
system.ruby.L1Cache_Controller.SM.Exclusive_Data |        3949      1.22%      1.22% |       21291      6.56%      7.78% |      249297     76.81%     84.59% |       50023     15.41%    100.00%
system.ruby.L1Cache_Controller.SM.Exclusive_Data::total       324560                      
system.ruby.L1Cache_Controller.OM.Own_GETX |          46     35.38%     35.38% |          26     20.00%     55.38% |          12      9.23%     64.62% |          46     35.38%    100.00%
system.ruby.L1Cache_Controller.OM.Own_GETX::total          130                      
system.ruby.L1Cache_Controller.OM.Ack    |         976     37.17%     37.17% |         241      9.18%     46.34% |         883     33.63%     79.97% |         526     20.03%    100.00%
system.ruby.L1Cache_Controller.OM.Ack::total         2626                      
system.ruby.L1Cache_Controller.OM.All_acks |       15264      1.71%      1.71% |       34839      3.90%      5.62% |      725405     81.30%     86.91% |      116784     13.09%    100.00%
system.ruby.L1Cache_Controller.OM.All_acks::total       892292                      
system.ruby.L1Cache_Controller.IS.Data   |       66887      4.40%      4.40% |       84167      5.54%      9.94% |     1132796     74.56%     84.50% |      235443     15.50%    100.00%
system.ruby.L1Cache_Controller.IS.Data::total      1519293                      
system.ruby.L1Cache_Controller.IS.Exclusive_Data |       11197      4.06%      4.06% |       13548      4.92%      8.98% |      154449     56.03%     65.01% |       96443     34.99%    100.00%
system.ruby.L1Cache_Controller.IS.Exclusive_Data::total       275637                      
system.ruby.L1Cache_Controller.SI.Load   |           0      0.00%      0.00% |           2     50.00%     50.00% |           0      0.00%     50.00% |           2     50.00%    100.00%
system.ruby.L1Cache_Controller.SI.Load::total            4                      
system.ruby.L1Cache_Controller.SI.Ifetch |           0      0.00%      0.00% |           4     40.00%     40.00% |           6     60.00%    100.00% |           0      0.00%    100.00%
system.ruby.L1Cache_Controller.SI.Ifetch::total           10                      
system.ruby.L1Cache_Controller.SI.Writeback_Ack |       54950     10.15%     10.15% |       47316      8.74%     18.90% |      350704     64.80%     83.70% |       88230     16.30%    100.00%
system.ruby.L1Cache_Controller.SI.Writeback_Ack::total       541200                      
system.ruby.L1Cache_Controller.SI.Writeback_Ack_Data |        5022      0.78%      0.78% |       11337      1.77%      2.55% |      529014     82.57%     85.12% |       95332     14.88%    100.00%
system.ruby.L1Cache_Controller.SI.Writeback_Ack_Data::total       640705                      
system.ruby.L1Cache_Controller.OI.Writeback_Ack_Data |         263     24.98%     24.98% |         178     16.90%     41.88% |         458     43.49%     85.38% |         154     14.62%    100.00%
system.ruby.L1Cache_Controller.OI.Writeback_Ack_Data::total         1053                      
system.ruby.L1Cache_Controller.MI.Writeback_Ack_Data |       15746      1.39%      1.39% |       39392      3.48%      4.87% |      875116     77.28%     82.15% |      202076     17.85%    100.00%
system.ruby.L1Cache_Controller.MI.Writeback_Ack_Data::total      1132330                      
system.ruby.L2Cache_Controller.L1_GETS        1795693      0.00%      0.00%
system.ruby.L2Cache_Controller.L1_GETX         892295      0.00%      0.00%
system.ruby.L2Cache_Controller.L1_PUTO           1053      0.00%      0.00%
system.ruby.L2Cache_Controller.L1_PUTX        1132330      0.00%      0.00%
system.ruby.L2Cache_Controller.L1_PUTS_only      1039536      0.00%      0.00%
system.ruby.L2Cache_Controller.L1_PUTS         142375      0.00%      0.00%
system.ruby.L2Cache_Controller.Fwd_DMA            400      0.00%      0.00%
system.ruby.L2Cache_Controller.All_Acks        824062      0.00%      0.00%
system.ruby.L2Cache_Controller.Data           1758265      0.00%      0.00%
system.ruby.L2Cache_Controller.L1_WBCLEANDATA       640705      0.00%      0.00%
system.ruby.L2Cache_Controller.L1_WBDIRTYDATA      1133383      0.00%      0.00%
system.ruby.L2Cache_Controller.Writeback_Ack       825823      0.00%      0.00%
system.ruby.L2Cache_Controller.Unblock        2060493      0.00%      0.00%
system.ruby.L2Cache_Controller.Exclusive_Unblock      1167929      0.00%      0.00%
system.ruby.L2Cache_Controller.DmaAck             286      0.00%      0.00%
system.ruby.L2Cache_Controller.L2_Replacement      1442548      0.00%      0.00%
system.ruby.L2Cache_Controller.NP.L1_GETS       934203      0.00%      0.00%
system.ruby.L2Cache_Controller.NP.L1_GETX       501539      0.00%      0.00%
system.ruby.L2Cache_Controller.ILS.L1_GETS         8193      0.00%      0.00%
system.ruby.L2Cache_Controller.ILS.L1_GETX       303854      0.00%      0.00%
system.ruby.L2Cache_Controller.ILS.L1_PUTS_only       631614      0.00%      0.00%
system.ruby.L2Cache_Controller.ILS.L1_PUTS         9091      0.00%      0.00%
system.ruby.L2Cache_Controller.ILX.L1_GETS        28879      0.00%      0.00%
system.ruby.L2Cache_Controller.ILX.L1_GETX         5851      0.00%      0.00%
system.ruby.L2Cache_Controller.ILX.L1_PUTX      1132330      0.00%      0.00%
system.ruby.L2Cache_Controller.ILX.Fwd_DMA          286      0.00%      0.00%
system.ruby.L2Cache_Controller.ILOX.L1_GETS         1265      0.00%      0.00%
system.ruby.L2Cache_Controller.ILOX.L1_GETX          205      0.00%      0.00%
system.ruby.L2Cache_Controller.ILOX.L1_PUTO          616      0.00%      0.00%
system.ruby.L2Cache_Controller.ILOSX.L1_GETS         8151      0.00%      0.00%
system.ruby.L2Cache_Controller.ILOSX.L1_GETX        11282      0.00%      0.00%
system.ruby.L2Cache_Controller.ILOSX.L1_PUTO          437      0.00%      0.00%
system.ruby.L2Cache_Controller.ILOSX.L1_PUTS_only         2111      0.00%      0.00%
system.ruby.L2Cache_Controller.ILOSX.L1_PUTS         2095      0.00%      0.00%
system.ruby.L2Cache_Controller.S.L1_GETS       421884      0.00%      0.00%
system.ruby.L2Cache_Controller.S.L1_GETX         4267      0.00%      0.00%
system.ruby.L2Cache_Controller.S.L2_Replacement       606564      0.00%      0.00%
system.ruby.L2Cache_Controller.OLSX.L1_GETS         4599      0.00%      0.00%
system.ruby.L2Cache_Controller.OLSX.L1_GETX          122      0.00%      0.00%
system.ruby.L2Cache_Controller.OLSX.L1_PUTS_only          160      0.00%      0.00%
system.ruby.L2Cache_Controller.OLSX.L1_PUTS         4487      0.00%      0.00%
system.ruby.L2Cache_Controller.OLSX.L2_Replacement          135      0.00%      0.00%
system.ruby.L2Cache_Controller.SLS.L1_GETS       128563      0.00%      0.00%
system.ruby.L2Cache_Controller.SLS.L1_GETX        14402      0.00%      0.00%
system.ruby.L2Cache_Controller.SLS.L1_PUTS_only       405649      0.00%      0.00%
system.ruby.L2Cache_Controller.SLS.L1_PUTS       126698      0.00%      0.00%
system.ruby.L2Cache_Controller.SLS.L2_Replacement        10161      0.00%      0.00%
system.ruby.L2Cache_Controller.M.L1_GETS       259193      0.00%      0.00%
system.ruby.L2Cache_Controller.M.L1_GETX        50770      0.00%      0.00%
system.ruby.L2Cache_Controller.M.Fwd_DMA          114      0.00%      0.00%
system.ruby.L2Cache_Controller.M.L2_Replacement       825688      0.00%      0.00%
system.ruby.L2Cache_Controller.ILOXW.L1_WBDIRTYDATA          616      0.00%      0.00%
system.ruby.L2Cache_Controller.ILOXW.Unblock         2111      0.00%      0.00%
system.ruby.L2Cache_Controller.ILOSXW.L1_WBDIRTYDATA          437      0.00%      0.00%
system.ruby.L2Cache_Controller.ILOSXW.Unblock         2095      0.00%      0.00%
system.ruby.L2Cache_Controller.SLSW.L1_PUTS            3      0.00%      0.00%
system.ruby.L2Cache_Controller.SLSW.Unblock       126698      0.00%      0.00%
system.ruby.L2Cache_Controller.ILSW.L1_WBCLEANDATA         9091      0.00%      0.00%
system.ruby.L2Cache_Controller.IW.L1_WBCLEANDATA       631614      0.00%      0.00%
system.ruby.L2Cache_Controller.SW.L1_GETS            2      0.00%      0.00%
system.ruby.L2Cache_Controller.SW.Unblock       405649      0.00%      0.00%
system.ruby.L2Cache_Controller.OXW.Unblock          160      0.00%      0.00%
system.ruby.L2Cache_Controller.OLSXW.Unblock         4487      0.00%      0.00%
system.ruby.L2Cache_Controller.ILXW.L1_WBDIRTYDATA      1132330      0.00%      0.00%
system.ruby.L2Cache_Controller.IFLS.Unblock         8193      0.00%      0.00%
system.ruby.L2Cache_Controller.IFLOX.Unblock         1265      0.00%      0.00%
system.ruby.L2Cache_Controller.IFLOX.Exclusive_Unblock          122      0.00%      0.00%
system.ruby.L2Cache_Controller.IFLOXX.L1_GETS           70      0.00%      0.00%
system.ruby.L2Cache_Controller.IFLOXX.L1_GETX            1      0.00%      0.00%
system.ruby.L2Cache_Controller.IFLOXX.Unblock        12435      0.00%      0.00%
system.ruby.L2Cache_Controller.IFLOXX.Exclusive_Unblock        22500      0.00%      0.00%
system.ruby.L2Cache_Controller.IFLOSX.Unblock         8151      0.00%      0.00%
system.ruby.L2Cache_Controller.IFLXO.L1_GETS           59      0.00%      0.00%
system.ruby.L2Cache_Controller.IFLXO.L1_GETX            2      0.00%      0.00%
system.ruby.L2Cache_Controller.IFLXO.Exclusive_Unblock        11282      0.00%      0.00%
system.ruby.L2Cache_Controller.IGS.L1_GETS          613      0.00%      0.00%
system.ruby.L2Cache_Controller.IGS.Data        934203      0.00%      0.00%
system.ruby.L2Cache_Controller.IGS.Unblock       934203      0.00%      0.00%
system.ruby.L2Cache_Controller.IGM.Data        505806      0.00%      0.00%
system.ruby.L2Cache_Controller.IGMLS.L1_GETS            5      0.00%      0.00%
system.ruby.L2Cache_Controller.IGMLS.Data       318256      0.00%      0.00%
system.ruby.L2Cache_Controller.IGMO.L1_GETS            1      0.00%      0.00%
system.ruby.L2Cache_Controller.IGMO.All_Acks       824062      0.00%      0.00%
system.ruby.L2Cache_Controller.IGMO.Exclusive_Unblock       824062      0.00%      0.00%
system.ruby.L2Cache_Controller.MM.Exclusive_Unblock        50770      0.00%      0.00%
system.ruby.L2Cache_Controller.SS.L1_GETS            7      0.00%      0.00%
system.ruby.L2Cache_Controller.SS.Unblock       421884      0.00%      0.00%
system.ruby.L2Cache_Controller.OO.Exclusive_Unblock       259193      0.00%      0.00%
system.ruby.L2Cache_Controller.OLSXS.Unblock         4599      0.00%      0.00%
system.ruby.L2Cache_Controller.SLSS.L1_GETS            6      0.00%      0.00%
system.ruby.L2Cache_Controller.SLSS.L1_PUTS_only            2      0.00%      0.00%
system.ruby.L2Cache_Controller.SLSS.L1_PUTS            1      0.00%      0.00%
system.ruby.L2Cache_Controller.SLSS.Unblock       128563      0.00%      0.00%
system.ruby.L2Cache_Controller.MI.Writeback_Ack       825688      0.00%      0.00%
system.ruby.L2Cache_Controller.OLSI.Writeback_Ack          135      0.00%      0.00%
system.ruby.L2Cache_Controller.ILXD.DmaAck          286      0.00%      0.00%

---------- End Simulation Statistics   ----------
